/*---------------------------------------------------------------------------*\
| =========                 |                                                 |
| \\      /  F ield         | OpenFOAM: The Open Source CFD Toolbox           |
|  \\    /   O peration     | Version:  v2012                                 |
|   \\  /    A nd           | Website:  www.openfoam.com                      |
|    \\/     M anipulation  |                                                 |
\*---------------------------------------------------------------------------*/
Build  : _7bdb509494-20201222 OPENFOAM=2012
Arch   : "LSB;label=32;scalar=64"
Exec   : fluxTransportFoam
Date   : Nov 26 2025
Time   : 02:33:49
Host   : luiza
PID    : 31211
I/O    : uncollated
Case   : /home/luiza/OpenFOAM/luiza-v2012/run/Tese/equimolar-FTF
nProcs : 1
trapFpe: Floating point exception trapping enabled (FOAM_SIGFPE).
fileModificationChecking : Monitoring run-time modified files using timeStampMaster (fileModificationSkew 5, maxFileModificationPolls 20)
allowSystemOperations : Allowing user-supplied system call operations

// * * * * * * * * * * * * * * * * * * * * * * * * * * * * * * * * * * * * * //
Create time

Create mesh for time = 0


SIMPLE: no convergence criteria found. Calculations will run for 200 steps.

Reading field total concentration

Reading field rho_a

Creating field rho_b

Creating field wa

Creating field wb

Reading transportProperties

Reading diffusion coefficient (Dab)

Reading molecular weights (MA and MB)

Creating field ratio (r)

Creating field ja (mass diffusive flux for A) 

Creating field jb (mass diffusive flux for B) 

Creating field mass average velocity 

Creating field Na (total mass flux for A) 

Creating field Nb (total mass flux for B) 

Creating field mass average velocity (verification step) 

Creating field coeff 


Calculating species transport

Instante atual = 0.1

DICPBiCGStab:  Solving for rho_a, Initial residual = 1, Final residual = 3.18403e-30, No Iterations 1
Instante atual = 0.2

DICPBiCGStab:  Solving for rho_a, Initial residual = 0.00233399, Final residual = 5.64649e-18, No Iterations 1
Instante atual = 0.3

DICPBiCGStab:  Solving for rho_a, Initial residual = 0.00114143, Final residual = 3.96324e-18, No Iterations 1
Instante atual = 0.4

DICPBiCGStab:  Solving for rho_a, Initial residual = 0.000696309, Final residual = 3.71593e-18, No Iterations 1
Instante atual = 0.5

DICPBiCGStab:  Solving for rho_a, Initial residual = 0.000533744, Final residual = 2.53662e-18, No Iterations 1
Instante atual = 0.6

DICPBiCGStab:  Solving for rho_a, Initial residual = 0.000448003, Final residual = 2.28538e-18, No Iterations 1
Instante atual = 0.7

DICPBiCGStab:  Solving for rho_a, Initial residual = 0.000377201, Final residual = 2.19327e-18, No Iterations 1
Instante atual = 0.8

DICPBiCGStab:  Solving for rho_a, Initial residual = 0.000319993, Final residual = 1.89166e-18, No Iterations 1
Instante atual = 0.9

DICPBiCGStab:  Solving for rho_a, Initial residual = 0.000273664, Final residual = 1.28744e-18, No Iterations 1
Instante atual = 1

DICPBiCGStab:  Solving for rho_a, Initial residual = 0.000239656, Final residual = 1.54771e-18, No Iterations 1
Instante atual = 1.1

DICPBiCGStab:  Solving for rho_a, Initial residual = 0.000219428, Final residual = 1.05362e-18, No Iterations 1
Instante atual = 1.2

DICPBiCGStab:  Solving for rho_a, Initial residual = 0.00020066, Final residual = 1.0235e-18, No Iterations 1
Instante atual = 1.3

DICPBiCGStab:  Solving for rho_a, Initial residual = 0.000183475, Final residual = 8.49648e-19, No Iterations 1
Instante atual = 1.4

DICPBiCGStab:  Solving for rho_a, Initial residual = 0.000167845, Final residual = 8.07582e-19, No Iterations 1
Instante atual = 1.5

DICPBiCGStab:  Solving for rho_a, Initial residual = 0.000153683, Final residual = 8.1004e-19, No Iterations 1
Instante atual = 1.6

DICPBiCGStab:  Solving for rho_a, Initial residual = 0.000141509, Final residual = 5.05635e-19, No Iterations 1
Instante atual = 1.7

DICPBiCGStab:  Solving for rho_a, Initial residual = 0.000133184, Final residual = 5.12838e-19, No Iterations 1
Instante atual = 1.8

DICPBiCGStab:  Solving for rho_a, Initial residual = 0.000125245, Final residual = 5.21809e-19, No Iterations 1
Instante atual = 1.9

DICPBiCGStab:  Solving for rho_a, Initial residual = 0.000117721, Final residual = 3.73961e-19, No Iterations 1
Instante atual = 2

DICPBiCGStab:  Solving for rho_a, Initial residual = 0.000110623, Final residual = 3.16595e-19, No Iterations 1
Instante atual = 2.1

DICPBiCGStab:  Solving for rho_a, Initial residual = 0.00010395, Final residual = 2.89452e-19, No Iterations 1
Instante atual = 2.2

DICPBiCGStab:  Solving for rho_a, Initial residual = 9.76911e-05, Final residual = 3.08988e-19, No Iterations 1
Instante atual = 2.3

DICPBiCGStab:  Solving for rho_a, Initial residual = 9.27e-05, Final residual = 2.36696e-19, No Iterations 1
Instante atual = 2.4

DICPBiCGStab:  Solving for rho_a, Initial residual = 8.8316e-05, Final residual = 2.09383e-19, No Iterations 1
Instante atual = 2.5

DICPBiCGStab:  Solving for rho_a, Initial residual = 8.41105e-05, Final residual = 2.24952e-19, No Iterations 1
Instante atual = 2.6

DICPBiCGStab:  Solving for rho_a, Initial residual = 8.00875e-05, Final residual = 1.90243e-19, No Iterations 1
Instante atual = 2.7

DICPBiCGStab:  Solving for rho_a, Initial residual = 7.6248e-05, Final residual = 1.12103e-19, No Iterations 1
Instante atual = 2.8

DICPBiCGStab:  Solving for rho_a, Initial residual = 7.25906e-05, Final residual = 1.2293e-19, No Iterations 1
Instante atual = 2.9

DICPBiCGStab:  Solving for rho_a, Initial residual = 6.91122e-05, Final residual = 1.03303e-19, No Iterations 1
Instante atual = 3

DICPBiCGStab:  Solving for rho_a, Initial residual = 6.6316e-05, Final residual = 1.26711e-19, No Iterations 1
Instante atual = 3.1

DICPBiCGStab:  Solving for rho_a, Initial residual = 6.36356e-05, Final residual = 1.02259e-19, No Iterations 1
Instante atual = 3.2

DICPBiCGStab:  Solving for rho_a, Initial residual = 6.10567e-05, Final residual = 6.65963e-20, No Iterations 1
Instante atual = 3.3

DICPBiCGStab:  Solving for rho_a, Initial residual = 5.85788e-05, Final residual = 8.83132e-20, No Iterations 1
Instante atual = 3.4

DICPBiCGStab:  Solving for rho_a, Initial residual = 5.62011e-05, Final residual = 8.33956e-20, No Iterations 1
Instante atual = 3.5

DICPBiCGStab:  Solving for rho_a, Initial residual = 5.3921e-05, Final residual = 2.88577e-20, No Iterations 1
Instante atual = 3.6

DICPBiCGStab:  Solving for rho_a, Initial residual = 5.17699e-05, Final residual = 6.82915e-20, No Iterations 1
Instante atual = 3.7

DICPBiCGStab:  Solving for rho_a, Initial residual = 4.99158e-05, Final residual = 8.39068e-20, No Iterations 1
Instante atual = 3.8

DICPBiCGStab:  Solving for rho_a, Initial residual = 4.81263e-05, Final residual = 6.64118e-20, No Iterations 1
Instante atual = 3.9

DICPBiCGStab:  Solving for rho_a, Initial residual = 4.64e-05, Final residual = 1.11656e-19, No Iterations 1
Instante atual = 4

DICPBiCGStab:  Solving for rho_a, Initial residual = 4.47363e-05, Final residual = 1.25916e-19, No Iterations 1
Instante atual = 4.1

DICPBiCGStab:  Solving for rho_a, Initial residual = 4.31354e-05, Final residual = 1.03103e-19, No Iterations 1
Instante atual = 4.2

DICPBiCGStab:  Solving for rho_a, Initial residual = 4.1596e-05, Final residual = 1.00871e-19, No Iterations 1
Instante atual = 4.3

DICPBiCGStab:  Solving for rho_a, Initial residual = 4.01485e-05, Final residual = 1.17149e-19, No Iterations 1
Instante atual = 4.4

DICPBiCGStab:  Solving for rho_a, Initial residual = 3.8842e-05, Final residual = 9.78579e-20, No Iterations 1
Instante atual = 4.5

DICPBiCGStab:  Solving for rho_a, Initial residual = 3.75791e-05, Final residual = 9.21727e-20, No Iterations 1
Instante atual = 4.6

DICPBiCGStab:  Solving for rho_a, Initial residual = 3.63586e-05, Final residual = 1.19216e-19, No Iterations 1
Instante atual = 4.7

DICPBiCGStab:  Solving for rho_a, Initial residual = 3.51797e-05, Final residual = 1.30862e-19, No Iterations 1
Instante atual = 4.8

DICPBiCGStab:  Solving for rho_a, Initial residual = 3.40412e-05, Final residual = 9.04195e-20, No Iterations 1
Instante atual = 4.9

DICPBiCGStab:  Solving for rho_a, Initial residual = 3.2942e-05, Final residual = 1.24154e-19, No Iterations 1
Instante atual = 5

DICPBiCGStab:  Solving for rho_a, Initial residual = 3.19069e-05, Final residual = 1.09538e-19, No Iterations 1
Instante atual = 5.1

DICPBiCGStab:  Solving for rho_a, Initial residual = 3.09403e-05, Final residual = 1.27166e-19, No Iterations 1
Instante atual = 5.2

DICPBiCGStab:  Solving for rho_a, Initial residual = 3.00041e-05, Final residual = 1.35304e-19, No Iterations 1
Instante atual = 5.3

DICPBiCGStab:  Solving for rho_a, Initial residual = 2.90977e-05, Final residual = 1.15022e-19, No Iterations 1
Instante atual = 5.4

DICPBiCGStab:  Solving for rho_a, Initial residual = 2.82201e-05, Final residual = 1.30762e-19, No Iterations 1
Instante atual = 5.5

DICPBiCGStab:  Solving for rho_a, Initial residual = 2.73705e-05, Final residual = 1.32355e-19, No Iterations 1
Instante atual = 5.6

DICPBiCGStab:  Solving for rho_a, Initial residual = 2.65482e-05, Final residual = 1.84027e-19, No Iterations 1
Instante atual = 5.7

DICPBiCGStab:  Solving for rho_a, Initial residual = 2.57731e-05, Final residual = 1.35066e-19, No Iterations 1
Instante atual = 5.8

DICPBiCGStab:  Solving for rho_a, Initial residual = 2.50319e-05, Final residual = 1.34554e-19, No Iterations 1
Instante atual = 5.9

DICPBiCGStab:  Solving for rho_a, Initial residual = 2.43128e-05, Final residual = 1.29439e-19, No Iterations 1
Instante atual = 6

DICPBiCGStab:  Solving for rho_a, Initial residual = 2.36154e-05, Final residual = 1.0305e-19, No Iterations 1
Instante atual = 6.1

DICPBiCGStab:  Solving for rho_a, Initial residual = 2.29388e-05, Final residual = 9.81903e-20, No Iterations 1
Instante atual = 6.2

DICPBiCGStab:  Solving for rho_a, Initial residual = 2.22827e-05, Final residual = 1.08004e-19, No Iterations 1
Instante atual = 6.3

DICPBiCGStab:  Solving for rho_a, Initial residual = 2.16462e-05, Final residual = 1.03566e-19, No Iterations 1
Instante atual = 6.4

DICPBiCGStab:  Solving for rho_a, Initial residual = 2.10444e-05, Final residual = 1.08784e-19, No Iterations 1
Instante atual = 6.5

DICPBiCGStab:  Solving for rho_a, Initial residual = 2.04604e-05, Final residual = 1.08653e-19, No Iterations 1
Instante atual = 6.6

DICPBiCGStab:  Solving for rho_a, Initial residual = 1.98931e-05, Final residual = 1.16514e-19, No Iterations 1
Instante atual = 6.7

DICPBiCGStab:  Solving for rho_a, Initial residual = 1.93421e-05, Final residual = 1.28096e-19, No Iterations 1
Instante atual = 6.8

DICPBiCGStab:  Solving for rho_a, Initial residual = 1.88068e-05, Final residual = 1.21103e-19, No Iterations 1
Instante atual = 6.9

DICPBiCGStab:  Solving for rho_a, Initial residual = 1.82869e-05, Final residual = 1.02467e-19, No Iterations 1
Instante atual = 7

DICPBiCGStab:  Solving for rho_a, Initial residual = 1.77837e-05, Final residual = 1.02712e-19, No Iterations 1
Instante atual = 7.1

DICPBiCGStab:  Solving for rho_a, Initial residual = 1.73012e-05, Final residual = 1.03308e-19, No Iterations 1
Instante atual = 7.2

DICPBiCGStab:  Solving for rho_a, Initial residual = 1.6832e-05, Final residual = 1.27413e-19, No Iterations 1
Instante atual = 7.3

DICPBiCGStab:  Solving for rho_a, Initial residual = 1.63758e-05, Final residual = 1.20972e-19, No Iterations 1
Instante atual = 7.4

DICPBiCGStab:  Solving for rho_a, Initial residual = 1.59323e-05, Final residual = 9.88022e-20, No Iterations 1
Instante atual = 7.5

DICPBiCGStab:  Solving for rho_a, Initial residual = 1.55009e-05, Final residual = 9.36042e-20, No Iterations 1
Instante atual = 7.6

DICPBiCGStab:  Solving for rho_a, Initial residual = 1.50816e-05, Final residual = 8.14687e-20, No Iterations 1
Instante atual = 7.7

DICPBiCGStab:  Solving for rho_a, Initial residual = 1.46748e-05, Final residual = 6.89239e-20, No Iterations 1
Instante atual = 7.8

DICPBiCGStab:  Solving for rho_a, Initial residual = 1.42822e-05, Final residual = 1.03771e-19, No Iterations 1
Instante atual = 7.9

DICPBiCGStab:  Solving for rho_a, Initial residual = 1.39003e-05, Final residual = 9.05382e-20, No Iterations 1
Instante atual = 8

DICPBiCGStab:  Solving for rho_a, Initial residual = 1.35287e-05, Final residual = 7.31435e-20, No Iterations 1
Instante atual = 8.1

DICPBiCGStab:  Solving for rho_a, Initial residual = 1.31671e-05, Final residual = 7.04564e-20, No Iterations 1
Instante atual = 8.2

DICPBiCGStab:  Solving for rho_a, Initial residual = 1.28153e-05, Final residual = 7.22251e-20, No Iterations 1
Instante atual = 8.3

DICPBiCGStab:  Solving for rho_a, Initial residual = 1.24731e-05, Final residual = 7.08612e-20, No Iterations 1
Instante atual = 8.4

DICPBiCGStab:  Solving for rho_a, Initial residual = 1.214e-05, Final residual = 8.21882e-20, No Iterations 1
Instante atual = 8.5

DICPBiCGStab:  Solving for rho_a, Initial residual = 1.18172e-05, Final residual = 6.3108e-20, No Iterations 1
Instante atual = 8.6

DICPBiCGStab:  Solving for rho_a, Initial residual = 1.15037e-05, Final residual = 8.35778e-20, No Iterations 1
Instante atual = 8.7

DICPBiCGStab:  Solving for rho_a, Initial residual = 1.11985e-05, Final residual = 6.88388e-20, No Iterations 1
Instante atual = 8.8

DICPBiCGStab:  Solving for rho_a, Initial residual = 1.09015e-05, Final residual = 8.54638e-20, No Iterations 1
Instante atual = 8.9

DICPBiCGStab:  Solving for rho_a, Initial residual = 1.06124e-05, Final residual = 6.79629e-20, No Iterations 1
Instante atual = 9

DICPBiCGStab:  Solving for rho_a, Initial residual = 1.0331e-05, Final residual = 6.04581e-20, No Iterations 1
Instante atual = 9.1

DICPBiCGStab:  Solving for rho_a, Initial residual = 1.00571e-05, Final residual = 6.99393e-20, No Iterations 1
Instante atual = 9.2

DICPBiCGStab:  Solving for rho_a, Initial residual = 9.79051e-06, Final residual = 6.47489e-20, No Iterations 1
Instante atual = 9.3

DICPBiCGStab:  Solving for rho_a, Initial residual = 9.53101e-06, Final residual = 5.12552e-20, No Iterations 1
Instante atual = 9.4

DICPBiCGStab:  Solving for rho_a, Initial residual = 9.27881e-06, Final residual = 5.68804e-20, No Iterations 1
Instante atual = 9.5

DICPBiCGStab:  Solving for rho_a, Initial residual = 9.0337e-06, Final residual = 5.99439e-20, No Iterations 1
Instante atual = 9.6

DICPBiCGStab:  Solving for rho_a, Initial residual = 8.79508e-06, Final residual = 6.43458e-20, No Iterations 1
Instante atual = 9.7

DICPBiCGStab:  Solving for rho_a, Initial residual = 8.56276e-06, Final residual = 5.64362e-20, No Iterations 1
Instante atual = 9.8

DICPBiCGStab:  Solving for rho_a, Initial residual = 8.33659e-06, Final residual = 6.99856e-20, No Iterations 1
Instante atual = 9.9

DICPBiCGStab:  Solving for rho_a, Initial residual = 8.11641e-06, Final residual = 6.4075e-20, No Iterations 1
Instante atual = 10

DICPBiCGStab:  Solving for rho_a, Initial residual = 7.90205e-06, Final residual = 4.70114e-20, No Iterations 1
Instante atual = 10.1

DICPBiCGStab:  Solving for rho_a, Initial residual = 7.69337e-06, Final residual = 3.79043e-20, No Iterations 1
Instante atual = 10.2

DICPBiCGStab:  Solving for rho_a, Initial residual = 7.4902e-06, Final residual = 4.89655e-20, No Iterations 1
Instante atual = 10.3

DICPBiCGStab:  Solving for rho_a, Initial residual = 7.29241e-06, Final residual = 4.24319e-20, No Iterations 1
Instante atual = 10.4

DICPBiCGStab:  Solving for rho_a, Initial residual = 7.09986e-06, Final residual = 4.35313e-20, No Iterations 1
Instante atual = 10.5

DICPBiCGStab:  Solving for rho_a, Initial residual = 6.9124e-06, Final residual = 5.60064e-20, No Iterations 1
Instante atual = 10.6

DICPBiCGStab:  Solving for rho_a, Initial residual = 6.72989e-06, Final residual = 4.98962e-20, No Iterations 1
Instante atual = 10.7

DICPBiCGStab:  Solving for rho_a, Initial residual = 6.55232e-06, Final residual = 4.2907e-20, No Iterations 1
Instante atual = 10.8

DICPBiCGStab:  Solving for rho_a, Initial residual = 6.37957e-06, Final residual = 4.37238e-20, No Iterations 1
Instante atual = 10.9

DICPBiCGStab:  Solving for rho_a, Initial residual = 6.21139e-06, Final residual = 4.75152e-20, No Iterations 1
Instante atual = 11

DICPBiCGStab:  Solving for rho_a, Initial residual = 6.04763e-06, Final residual = 4.11572e-20, No Iterations 1
Instante atual = 11.1

DICPBiCGStab:  Solving for rho_a, Initial residual = 5.8882e-06, Final residual = 3.58196e-20, No Iterations 1
Instante atual = 11.2

DICPBiCGStab:  Solving for rho_a, Initial residual = 5.73297e-06, Final residual = 4.1975e-20, No Iterations 1
Instante atual = 11.3

DICPBiCGStab:  Solving for rho_a, Initial residual = 5.58184e-06, Final residual = 3.42725e-20, No Iterations 1
Instante atual = 11.4

DICPBiCGStab:  Solving for rho_a, Initial residual = 5.43469e-06, Final residual = 3.16447e-20, No Iterations 1
Instante atual = 11.5

DICPBiCGStab:  Solving for rho_a, Initial residual = 5.29143e-06, Final residual = 4.25371e-20, No Iterations 1
Instante atual = 11.6

DICPBiCGStab:  Solving for rho_a, Initial residual = 5.15195e-06, Final residual = 3.50152e-20, No Iterations 1
Instante atual = 11.7

DICPBiCGStab:  Solving for rho_a, Initial residual = 5.01614e-06, Final residual = 4.20381e-20, No Iterations 1
Instante atual = 11.8

DICPBiCGStab:  Solving for rho_a, Initial residual = 4.88392e-06, Final residual = 3.73786e-20, No Iterations 1
Instante atual = 11.9

DICPBiCGStab:  Solving for rho_a, Initial residual = 4.75518e-06, Final residual = 2.67397e-20, No Iterations 1
Instante atual = 12

DICPBiCGStab:  Solving for rho_a, Initial residual = 4.62985e-06, Final residual = 3.08083e-20, No Iterations 1
Instante atual = 12.1

DICPBiCGStab:  Solving for rho_a, Initial residual = 4.50782e-06, Final residual = 3.08527e-20, No Iterations 1
Instante atual = 12.2

DICPBiCGStab:  Solving for rho_a, Initial residual = 4.389e-06, Final residual = 2.96669e-20, No Iterations 1
Instante atual = 12.3

DICPBiCGStab:  Solving for rho_a, Initial residual = 4.27333e-06, Final residual = 3.32244e-20, No Iterations 1
Instante atual = 12.4

DICPBiCGStab:  Solving for rho_a, Initial residual = 4.1607e-06, Final residual = 3.34186e-20, No Iterations 1
Instante atual = 12.5

DICPBiCGStab:  Solving for rho_a, Initial residual = 4.05105e-06, Final residual = 2.86213e-20, No Iterations 1
Instante atual = 12.6

DICPBiCGStab:  Solving for rho_a, Initial residual = 3.94429e-06, Final residual = 3.27897e-20, No Iterations 1
Instante atual = 12.7

DICPBiCGStab:  Solving for rho_a, Initial residual = 3.84034e-06, Final residual = 2.58287e-20, No Iterations 1
Instante atual = 12.8

DICPBiCGStab:  Solving for rho_a, Initial residual = 3.73914e-06, Final residual = 2.47803e-20, No Iterations 1
Instante atual = 12.9

DICPBiCGStab:  Solving for rho_a, Initial residual = 3.64061e-06, Final residual = 2.14359e-20, No Iterations 1
Instante atual = 13

DICPBiCGStab:  Solving for rho_a, Initial residual = 3.54468e-06, Final residual = 2.58053e-20, No Iterations 1
Instante atual = 13.1

DICPBiCGStab:  Solving for rho_a, Initial residual = 3.45127e-06, Final residual = 2.4758e-20, No Iterations 1
Instante atual = 13.2

DICPBiCGStab:  Solving for rho_a, Initial residual = 3.36033e-06, Final residual = 2.58946e-20, No Iterations 1
Instante atual = 13.3

DICPBiCGStab:  Solving for rho_a, Initial residual = 3.27179e-06, Final residual = 1.849e-20, No Iterations 1
Instante atual = 13.4

DICPBiCGStab:  Solving for rho_a, Initial residual = 3.18559e-06, Final residual = 2.30435e-20, No Iterations 1
Instante atual = 13.5

DICPBiCGStab:  Solving for rho_a, Initial residual = 3.10166e-06, Final residual = 2.20891e-20, No Iterations 1
Instante atual = 13.6

DICPBiCGStab:  Solving for rho_a, Initial residual = 3.01994e-06, Final residual = 1.79208e-20, No Iterations 1
Instante atual = 13.7

DICPBiCGStab:  Solving for rho_a, Initial residual = 2.94038e-06, Final residual = 1.70844e-20, No Iterations 1
Instante atual = 13.8

DICPBiCGStab:  Solving for rho_a, Initial residual = 2.86292e-06, Final residual = 1.40161e-20, No Iterations 1
Instante atual = 13.9

DICPBiCGStab:  Solving for rho_a, Initial residual = 2.78752e-06, Final residual = 1.94662e-20, No Iterations 1
Instante atual = 14

DICPBiCGStab:  Solving for rho_a, Initial residual = 2.7141e-06, Final residual = 1.4179e-20, No Iterations 1
Instante atual = 14.1

DICPBiCGStab:  Solving for rho_a, Initial residual = 2.64262e-06, Final residual = 2.03114e-20, No Iterations 1
Instante atual = 14.2

DICPBiCGStab:  Solving for rho_a, Initial residual = 2.57302e-06, Final residual = 1.79715e-20, No Iterations 1
Instante atual = 14.3

DICPBiCGStab:  Solving for rho_a, Initial residual = 2.50526e-06, Final residual = 1.62932e-20, No Iterations 1
Instante atual = 14.4

DICPBiCGStab:  Solving for rho_a, Initial residual = 2.43929e-06, Final residual = 1.90629e-20, No Iterations 1
Instante atual = 14.5

DICPBiCGStab:  Solving for rho_a, Initial residual = 2.37505e-06, Final residual = 1.85237e-20, No Iterations 1
Instante atual = 14.6

DICPBiCGStab:  Solving for rho_a, Initial residual = 2.3125e-06, Final residual = 1.67118e-20, No Iterations 1
Instante atual = 14.7

DICPBiCGStab:  Solving for rho_a, Initial residual = 2.25161e-06, Final residual = 1.17955e-20, No Iterations 1
Instante atual = 14.8

DICPBiCGStab:  Solving for rho_a, Initial residual = 2.19231e-06, Final residual = 1.41978e-20, No Iterations 1
Instante atual = 14.9

DICPBiCGStab:  Solving for rho_a, Initial residual = 2.13458e-06, Final residual = 1.45113e-20, No Iterations 1
Instante atual = 15

DICPBiCGStab:  Solving for rho_a, Initial residual = 2.07837e-06, Final residual = 1.67721e-20, No Iterations 1
Instante atual = 15.1

DICPBiCGStab:  Solving for rho_a, Initial residual = 2.02365e-06, Final residual = 1.38523e-20, No Iterations 1
Instante atual = 15.2

DICPBiCGStab:  Solving for rho_a, Initial residual = 1.97036e-06, Final residual = 1.15739e-20, No Iterations 1
Instante atual = 15.3

DICPBiCGStab:  Solving for rho_a, Initial residual = 1.91848e-06, Final residual = 1.14202e-20, No Iterations 1
Instante atual = 15.4

DICPBiCGStab:  Solving for rho_a, Initial residual = 1.86797e-06, Final residual = 1.2337e-20, No Iterations 1
Instante atual = 15.5

DICPBiCGStab:  Solving for rho_a, Initial residual = 1.81878e-06, Final residual = 1.08729e-20, No Iterations 1
Instante atual = 15.6

DICPBiCGStab:  Solving for rho_a, Initial residual = 1.77089e-06, Final residual = 9.66155e-21, No Iterations 1
Instante atual = 15.7

DICPBiCGStab:  Solving for rho_a, Initial residual = 1.72427e-06, Final residual = 1.40023e-20, No Iterations 1
Instante atual = 15.8

DICPBiCGStab:  Solving for rho_a, Initial residual = 1.67887e-06, Final residual = 1.02234e-20, No Iterations 1
Instante atual = 15.9

DICPBiCGStab:  Solving for rho_a, Initial residual = 1.63467e-06, Final residual = 9.37481e-21, No Iterations 1
Instante atual = 16

DICPBiCGStab:  Solving for rho_a, Initial residual = 1.59163e-06, Final residual = 8.7306e-21, No Iterations 1
Instante atual = 16.1

DICPBiCGStab:  Solving for rho_a, Initial residual = 1.54973e-06, Final residual = 1.00559e-20, No Iterations 1
Instante atual = 16.2

DICPBiCGStab:  Solving for rho_a, Initial residual = 1.50893e-06, Final residual = 1.02342e-20, No Iterations 1
Instante atual = 16.3

DICPBiCGStab:  Solving for rho_a, Initial residual = 1.4692e-06, Final residual = 9.95976e-21, No Iterations 1
Instante atual = 16.4

DICPBiCGStab:  Solving for rho_a, Initial residual = 1.43052e-06, Final residual = 1.09308e-20, No Iterations 1
Instante atual = 16.5

DICPBiCGStab:  Solving for rho_a, Initial residual = 1.39287e-06, Final residual = 9.26485e-21, No Iterations 1
Instante atual = 16.6

DICPBiCGStab:  Solving for rho_a, Initial residual = 1.3562e-06, Final residual = 1.10131e-20, No Iterations 1
Instante atual = 16.7

DICPBiCGStab:  Solving for rho_a, Initial residual = 1.3205e-06, Final residual = 8.44094e-21, No Iterations 1
Instante atual = 16.8

DICPBiCGStab:  Solving for rho_a, Initial residual = 1.28573e-06, Final residual = 9.22387e-21, No Iterations 1
Instante atual = 16.9

DICPBiCGStab:  Solving for rho_a, Initial residual = 1.25189e-06, Final residual = 1.03214e-20, No Iterations 1
Instante atual = 17

DICPBiCGStab:  Solving for rho_a, Initial residual = 1.21893e-06, Final residual = 8.77046e-21, No Iterations 1
Instante atual = 17.1

DICPBiCGStab:  Solving for rho_a, Initial residual = 1.18685e-06, Final residual = 6.47581e-21, No Iterations 1
Instante atual = 17.2

DICPBiCGStab:  Solving for rho_a, Initial residual = 1.15561e-06, Final residual = 6.0667e-21, No Iterations 1
Instante atual = 17.3

DICPBiCGStab:  Solving for rho_a, Initial residual = 1.12519e-06, Final residual = 8.62564e-21, No Iterations 1
Instante atual = 17.4

DICPBiCGStab:  Solving for rho_a, Initial residual = 1.09557e-06, Final residual = 9.43403e-21, No Iterations 1
Instante atual = 17.5

DICPBiCGStab:  Solving for rho_a, Initial residual = 1.06673e-06, Final residual = 7.53282e-21, No Iterations 1
Instante atual = 17.6

DICPBiCGStab:  Solving for rho_a, Initial residual = 1.03866e-06, Final residual = 7.21676e-21, No Iterations 1
Instante atual = 17.7

DICPBiCGStab:  Solving for rho_a, Initial residual = 1.01132e-06, Final residual = 8.66466e-21, No Iterations 1
Instante atual = 17.8

DICPBiCGStab:  Solving for rho_a, Initial residual = 9.84699e-07, Final residual = 6.17028e-21, No Iterations 1
Instante atual = 17.9

DICPBiCGStab:  Solving for rho_a, Initial residual = 9.58781e-07, Final residual = 5.76695e-21, No Iterations 1
Instante atual = 18

DICPBiCGStab:  Solving for rho_a, Initial residual = 9.33546e-07, Final residual = 5.69904e-21, No Iterations 1
Instante atual = 18.1

DICPBiCGStab:  Solving for rho_a, Initial residual = 9.08975e-07, Final residual = 5.54045e-21, No Iterations 1
Instante atual = 18.2

DICPBiCGStab:  Solving for rho_a, Initial residual = 8.85052e-07, Final residual = 5.32989e-21, No Iterations 1
Instante atual = 18.3

DICPBiCGStab:  Solving for rho_a, Initial residual = 8.61758e-07, Final residual = 5.02309e-21, No Iterations 1
Instante atual = 18.4

DICPBiCGStab:  Solving for rho_a, Initial residual = 8.39078e-07, Final residual = 5.16647e-21, No Iterations 1
Instante atual = 18.5

DICPBiCGStab:  Solving for rho_a, Initial residual = 8.16994e-07, Final residual = 5.56875e-21, No Iterations 1
Instante atual = 18.6

DICPBiCGStab:  Solving for rho_a, Initial residual = 7.95493e-07, Final residual = 4.67262e-21, No Iterations 1
Instante atual = 18.7

DICPBiCGStab:  Solving for rho_a, Initial residual = 7.74557e-07, Final residual = 5.22166e-21, No Iterations 1
Instante atual = 18.8

DICPBiCGStab:  Solving for rho_a, Initial residual = 7.54172e-07, Final residual = 5.07111e-21, No Iterations 1
Instante atual = 18.9

DICPBiCGStab:  Solving for rho_a, Initial residual = 7.34325e-07, Final residual = 6.57697e-21, No Iterations 1
Instante atual = 19

DICPBiCGStab:  Solving for rho_a, Initial residual = 7.14999e-07, Final residual = 4.52013e-21, No Iterations 1
Instante atual = 19.1

DICPBiCGStab:  Solving for rho_a, Initial residual = 6.96183e-07, Final residual = 3.91572e-21, No Iterations 1
Instante atual = 19.2

DICPBiCGStab:  Solving for rho_a, Initial residual = 6.77862e-07, Final residual = 4.23274e-21, No Iterations 1
Instante atual = 19.3

DICPBiCGStab:  Solving for rho_a, Initial residual = 6.60023e-07, Final residual = 3.57032e-21, No Iterations 1
Instante atual = 19.4

DICPBiCGStab:  Solving for rho_a, Initial residual = 6.42654e-07, Final residual = 4.65025e-21, No Iterations 1
Instante atual = 19.5

DICPBiCGStab:  Solving for rho_a, Initial residual = 6.25742e-07, Final residual = 3.98829e-21, No Iterations 1
Instante atual = 19.6

DICPBiCGStab:  Solving for rho_a, Initial residual = 6.09275e-07, Final residual = 3.67661e-21, No Iterations 1
Instante atual = 19.7

DICPBiCGStab:  Solving for rho_a, Initial residual = 5.93242e-07, Final residual = 4.22452e-21, No Iterations 1
Instante atual = 19.8

DICPBiCGStab:  Solving for rho_a, Initial residual = 5.77631e-07, Final residual = 3.82415e-21, No Iterations 1
Instante atual = 19.9

DICPBiCGStab:  Solving for rho_a, Initial residual = 5.62431e-07, Final residual = 3.22847e-21, No Iterations 1
Instante atual = 20

DICPBiCGStab:  Solving for rho_a, Initial residual = 5.47631e-07, Final residual = 3.95267e-21, No Iterations 1
Instante atual = 20.1

DICPBiCGStab:  Solving for rho_a, Initial residual = 5.3322e-07, Final residual = 3.99105e-21, No Iterations 1
Instante atual = 20.2

DICPBiCGStab:  Solving for rho_a, Initial residual = 5.19189e-07, Final residual = 3.35206e-21, No Iterations 1
Instante atual = 20.3

DICPBiCGStab:  Solving for rho_a, Initial residual = 5.05527e-07, Final residual = 2.79249e-21, No Iterations 1
Instante atual = 20.4

DICPBiCGStab:  Solving for rho_a, Initial residual = 4.92225e-07, Final residual = 3.3586e-21, No Iterations 1
Instante atual = 20.5

DICPBiCGStab:  Solving for rho_a, Initial residual = 4.79273e-07, Final residual = 3.0533e-21, No Iterations 1
Instante atual = 20.6

DICPBiCGStab:  Solving for rho_a, Initial residual = 4.66662e-07, Final residual = 3.50938e-21, No Iterations 1
Instante atual = 20.7

DICPBiCGStab:  Solving for rho_a, Initial residual = 4.54382e-07, Final residual = 2.5164e-21, No Iterations 1
Instante atual = 20.8

DICPBiCGStab:  Solving for rho_a, Initial residual = 4.42426e-07, Final residual = 2.94018e-21, No Iterations 1
Instante atual = 20.9

DICPBiCGStab:  Solving for rho_a, Initial residual = 4.30785e-07, Final residual = 2.59791e-21, No Iterations 1
Instante atual = 21

DICPBiCGStab:  Solving for rho_a, Initial residual = 4.1945e-07, Final residual = 3.04012e-21, No Iterations 1
Instante atual = 21.1

DICPBiCGStab:  Solving for rho_a, Initial residual = 4.08413e-07, Final residual = 3.00391e-21, No Iterations 1
Instante atual = 21.2

DICPBiCGStab:  Solving for rho_a, Initial residual = 3.97667e-07, Final residual = 2.42536e-21, No Iterations 1
Instante atual = 21.3

DICPBiCGStab:  Solving for rho_a, Initial residual = 3.87203e-07, Final residual = 2.67171e-21, No Iterations 1
Instante atual = 21.4

DICPBiCGStab:  Solving for rho_a, Initial residual = 3.77015e-07, Final residual = 2.58534e-21, No Iterations 1
Instante atual = 21.5

DICPBiCGStab:  Solving for rho_a, Initial residual = 3.67096e-07, Final residual = 2.83849e-21, No Iterations 1
Instante atual = 21.6

DICPBiCGStab:  Solving for rho_a, Initial residual = 3.57437e-07, Final residual = 1.8201e-21, No Iterations 1
Instante atual = 21.7

DICPBiCGStab:  Solving for rho_a, Initial residual = 3.48032e-07, Final residual = 2.57323e-21, No Iterations 1
Instante atual = 21.8

DICPBiCGStab:  Solving for rho_a, Initial residual = 3.38875e-07, Final residual = 1.96765e-21, No Iterations 1
Instante atual = 21.9

DICPBiCGStab:  Solving for rho_a, Initial residual = 3.29959e-07, Final residual = 1.45901e-21, No Iterations 1
Instante atual = 22

DICPBiCGStab:  Solving for rho_a, Initial residual = 3.21277e-07, Final residual = 2.53805e-21, No Iterations 1
Instante atual = 22.1

DICPBiCGStab:  Solving for rho_a, Initial residual = 3.12824e-07, Final residual = 2.24754e-21, No Iterations 1
Instante atual = 22.2

DICPBiCGStab:  Solving for rho_a, Initial residual = 3.04594e-07, Final residual = 2.13203e-21, No Iterations 1
Instante atual = 22.3

DICPBiCGStab:  Solving for rho_a, Initial residual = 2.9658e-07, Final residual = 2.28371e-21, No Iterations 1
Instante atual = 22.4

DICPBiCGStab:  Solving for rho_a, Initial residual = 2.88777e-07, Final residual = 2.03218e-21, No Iterations 1
Instante atual = 22.5

DICPBiCGStab:  Solving for rho_a, Initial residual = 2.81179e-07, Final residual = 1.75517e-21, No Iterations 1
Instante atual = 22.6

DICPBiCGStab:  Solving for rho_a, Initial residual = 2.73781e-07, Final residual = 2.39588e-21, No Iterations 1
Instante atual = 22.7

DICPBiCGStab:  Solving for rho_a, Initial residual = 2.66578e-07, Final residual = 1.41655e-21, No Iterations 1
Instante atual = 22.8

DICPBiCGStab:  Solving for rho_a, Initial residual = 2.59564e-07, Final residual = 2.06296e-21, No Iterations 1
Instante atual = 22.9

DICPBiCGStab:  Solving for rho_a, Initial residual = 2.52735e-07, Final residual = 2.10815e-21, No Iterations 1
Instante atual = 23

DICPBiCGStab:  Solving for rho_a, Initial residual = 2.46086e-07, Final residual = 1.76179e-21, No Iterations 1
Instante atual = 23.1

DICPBiCGStab:  Solving for rho_a, Initial residual = 2.39612e-07, Final residual = 1.71367e-21, No Iterations 1
Instante atual = 23.2

DICPBiCGStab:  Solving for rho_a, Initial residual = 2.33307e-07, Final residual = 1.47431e-21, No Iterations 1
Instante atual = 23.3

DICPBiCGStab:  Solving for rho_a, Initial residual = 2.27169e-07, Final residual = 1.61082e-21, No Iterations 1
Instante atual = 23.4

DICPBiCGStab:  Solving for rho_a, Initial residual = 2.21193e-07, Final residual = 1.74761e-21, No Iterations 1
Instante atual = 23.5

DICPBiCGStab:  Solving for rho_a, Initial residual = 2.15373e-07, Final residual = 1.29733e-21, No Iterations 1
Instante atual = 23.6

DICPBiCGStab:  Solving for rho_a, Initial residual = 2.09707e-07, Final residual = 1.35765e-21, No Iterations 1
Instante atual = 23.7

DICPBiCGStab:  Solving for rho_a, Initial residual = 2.0419e-07, Final residual = 1.39976e-21, No Iterations 1
Instante atual = 23.8

DICPBiCGStab:  Solving for rho_a, Initial residual = 1.98818e-07, Final residual = 1.31886e-21, No Iterations 1
Instante atual = 23.9

DICPBiCGStab:  Solving for rho_a, Initial residual = 1.93587e-07, Final residual = 1.52207e-21, No Iterations 1
Instante atual = 24

DICPBiCGStab:  Solving for rho_a, Initial residual = 1.88494e-07, Final residual = 1.25419e-21, No Iterations 1
Instante atual = 24.1

DICPBiCGStab:  Solving for rho_a, Initial residual = 1.83535e-07, Final residual = 1.25685e-21, No Iterations 1
Instante atual = 24.2

DICPBiCGStab:  Solving for rho_a, Initial residual = 1.78707e-07, Final residual = 1.47622e-21, No Iterations 1
Instante atual = 24.3

DICPBiCGStab:  Solving for rho_a, Initial residual = 1.74005e-07, Final residual = 9.61757e-22, No Iterations 1
Instante atual = 24.4

DICPBiCGStab:  Solving for rho_a, Initial residual = 1.69428e-07, Final residual = 1.04228e-21, No Iterations 1
Instante atual = 24.5

DICPBiCGStab:  Solving for rho_a, Initial residual = 1.6497e-07, Final residual = 1.1176e-21, No Iterations 1
Instante atual = 24.6

DICPBiCGStab:  Solving for rho_a, Initial residual = 1.6063e-07, Final residual = 1.26456e-21, No Iterations 1
Instante atual = 24.7

DICPBiCGStab:  Solving for rho_a, Initial residual = 1.56404e-07, Final residual = 1.42299e-21, No Iterations 1
Instante atual = 24.8

DICPBiCGStab:  Solving for rho_a, Initial residual = 1.5229e-07, Final residual = 1.1509e-21, No Iterations 1
Instante atual = 24.9

DICPBiCGStab:  Solving for rho_a, Initial residual = 1.48283e-07, Final residual = 9.60976e-22, No Iterations 1
Instante atual = 25

DICPBiCGStab:  Solving for rho_a, Initial residual = 1.44382e-07, Final residual = 1.01291e-21, No Iterations 1
Instante atual = 25.1

DICPBiCGStab:  Solving for rho_a, Initial residual = 1.40584e-07, Final residual = 9.32636e-22, No Iterations 1
Instante atual = 25.2

DICPBiCGStab:  Solving for rho_a, Initial residual = 1.36886e-07, Final residual = 1.02146e-21, No Iterations 1
Instante atual = 25.3

DICPBiCGStab:  Solving for rho_a, Initial residual = 1.33284e-07, Final residual = 8.2631e-22, No Iterations 1
Instante atual = 25.4

DICPBiCGStab:  Solving for rho_a, Initial residual = 1.29778e-07, Final residual = 9.47795e-22, No Iterations 1
Instante atual = 25.5

DICPBiCGStab:  Solving for rho_a, Initial residual = 1.26364e-07, Final residual = 7.6475e-22, No Iterations 1
Instante atual = 25.6

DICPBiCGStab:  Solving for rho_a, Initial residual = 1.2304e-07, Final residual = 9.92507e-22, No Iterations 1
Instante atual = 25.7

DICPBiCGStab:  Solving for rho_a, Initial residual = 1.19803e-07, Final residual = 8.58324e-22, No Iterations 1
Instante atual = 25.8

DICPBiCGStab:  Solving for rho_a, Initial residual = 1.16651e-07, Final residual = 1.10569e-21, No Iterations 1
Instante atual = 25.9

DICPBiCGStab:  Solving for rho_a, Initial residual = 1.13582e-07, Final residual = 7.30778e-22, No Iterations 1
Instante atual = 26

DICPBiCGStab:  Solving for rho_a, Initial residual = 1.10594e-07, Final residual = 8.46043e-22, No Iterations 1
Instante atual = 26.1

DICPBiCGStab:  Solving for rho_a, Initial residual = 1.07685e-07, Final residual = 8.25738e-22, No Iterations 1
Instante atual = 26.2

DICPBiCGStab:  Solving for rho_a, Initial residual = 1.04852e-07, Final residual = 9.51927e-22, No Iterations 1
Instante atual = 26.3

DICPBiCGStab:  Solving for rho_a, Initial residual = 1.02094e-07, Final residual = 6.87211e-22, No Iterations 1
Instante atual = 26.4

DICPBiCGStab:  Solving for rho_a, Initial residual = 9.9408e-08, Final residual = 6.02329e-22, No Iterations 1
Instante atual = 26.5

DICPBiCGStab:  Solving for rho_a, Initial residual = 9.67929e-08, Final residual = 6.56263e-22, No Iterations 1
Instante atual = 26.6

DICPBiCGStab:  Solving for rho_a, Initial residual = 9.42466e-08, Final residual = 6.01561e-22, No Iterations 1
Instante atual = 26.7

DICPBiCGStab:  Solving for rho_a, Initial residual = 9.17673e-08, Final residual = 6.65695e-22, No Iterations 1
Instante atual = 26.8

DICPBiCGStab:  Solving for rho_a, Initial residual = 8.93532e-08, Final residual = 5.9055e-22, No Iterations 1
Instante atual = 26.9

DICPBiCGStab:  Solving for rho_a, Initial residual = 8.70026e-08, Final residual = 5.52217e-22, No Iterations 1
Instante atual = 27

DICPBiCGStab:  Solving for rho_a, Initial residual = 8.47139e-08, Final residual = 5.41097e-22, No Iterations 1
Instante atual = 27.1

DICPBiCGStab:  Solving for rho_a, Initial residual = 8.24854e-08, Final residual = 5.85851e-22, No Iterations 1
Instante atual = 27.2

DICPBiCGStab:  Solving for rho_a, Initial residual = 8.03155e-08, Final residual = 5.61709e-22, No Iterations 1
Instante atual = 27.3

DICPBiCGStab:  Solving for rho_a, Initial residual = 7.82027e-08, Final residual = 4.91153e-22, No Iterations 1
Instante atual = 27.4

DICPBiCGStab:  Solving for rho_a, Initial residual = 7.61454e-08, Final residual = 5.44147e-22, No Iterations 1
Instante atual = 27.5

DICPBiCGStab:  Solving for rho_a, Initial residual = 7.41423e-08, Final residual = 4.96579e-22, No Iterations 1
Instante atual = 27.6

DICPBiCGStab:  Solving for rho_a, Initial residual = 7.21919e-08, Final residual = 5.6299e-22, No Iterations 1
Instante atual = 27.7

DICPBiCGStab:  Solving for rho_a, Initial residual = 7.02928e-08, Final residual = 4.39811e-22, No Iterations 1
Instante atual = 27.8

DICPBiCGStab:  Solving for rho_a, Initial residual = 6.84437e-08, Final residual = 4.46108e-22, No Iterations 1
Instante atual = 27.9

DICPBiCGStab:  Solving for rho_a, Initial residual = 6.66432e-08, Final residual = 5.43196e-22, No Iterations 1
Instante atual = 28

DICPBiCGStab:  Solving for rho_a, Initial residual = 6.489e-08, Final residual = 4.99384e-22, No Iterations 1
Instante atual = 28.1

DICPBiCGStab:  Solving for rho_a, Initial residual = 6.3183e-08, Final residual = 4.79452e-22, No Iterations 1
Instante atual = 28.2

DICPBiCGStab:  Solving for rho_a, Initial residual = 6.15209e-08, Final residual = 4.15799e-22, No Iterations 1
Instante atual = 28.3

DICPBiCGStab:  Solving for rho_a, Initial residual = 5.99026e-08, Final residual = 5.15374e-22, No Iterations 1
Instante atual = 28.4

DICPBiCGStab:  Solving for rho_a, Initial residual = 5.83268e-08, Final residual = 3.87988e-22, No Iterations 1
Instante atual = 28.5

DICPBiCGStab:  Solving for rho_a, Initial residual = 5.67924e-08, Final residual = 4.19447e-22, No Iterations 1
Instante atual = 28.6

DICPBiCGStab:  Solving for rho_a, Initial residual = 5.52984e-08, Final residual = 3.77952e-22, No Iterations 1
Instante atual = 28.7

DICPBiCGStab:  Solving for rho_a, Initial residual = 5.38438e-08, Final residual = 4.31827e-22, No Iterations 1
Instante atual = 28.8

DICPBiCGStab:  Solving for rho_a, Initial residual = 5.24273e-08, Final residual = 3.64073e-22, No Iterations 1
Instante atual = 28.9

DICPBiCGStab:  Solving for rho_a, Initial residual = 5.10482e-08, Final residual = 4.10464e-22, No Iterations 1
Instante atual = 29

DICPBiCGStab:  Solving for rho_a, Initial residual = 4.97053e-08, Final residual = 3.65104e-22, No Iterations 1
Instante atual = 29.1

DICPBiCGStab:  Solving for rho_a, Initial residual = 4.83978e-08, Final residual = 3.19527e-22, No Iterations 1
Instante atual = 29.2

DICPBiCGStab:  Solving for rho_a, Initial residual = 4.71246e-08, Final residual = 3.38108e-22, No Iterations 1
Instante atual = 29.3

DICPBiCGStab:  Solving for rho_a, Initial residual = 4.5885e-08, Final residual = 3.10022e-22, No Iterations 1
Instante atual = 29.4

DICPBiCGStab:  Solving for rho_a, Initial residual = 4.4678e-08, Final residual = 3.2979e-22, No Iterations 1
Instante atual = 29.5

DICPBiCGStab:  Solving for rho_a, Initial residual = 4.35027e-08, Final residual = 3.0874e-22, No Iterations 1
Instante atual = 29.6

DICPBiCGStab:  Solving for rho_a, Initial residual = 4.23583e-08, Final residual = 2.91941e-22, No Iterations 1
Instante atual = 29.7

DICPBiCGStab:  Solving for rho_a, Initial residual = 4.1244e-08, Final residual = 2.56256e-22, No Iterations 1
Instante atual = 29.8

DICPBiCGStab:  Solving for rho_a, Initial residual = 4.01591e-08, Final residual = 3.00135e-22, No Iterations 1
Instante atual = 29.9

DICPBiCGStab:  Solving for rho_a, Initial residual = 3.91027e-08, Final residual = 2.61683e-22, No Iterations 1
Instante atual = 30

DICPBiCGStab:  Solving for rho_a, Initial residual = 3.8074e-08, Final residual = 2.65982e-22, No Iterations 1
Instante atual = 30.1

DICPBiCGStab:  Solving for rho_a, Initial residual = 3.70725e-08, Final residual = 2.54849e-22, No Iterations 1
Instante atual = 30.2

DICPBiCGStab:  Solving for rho_a, Initial residual = 3.60973e-08, Final residual = 2.16666e-22, No Iterations 1
Instante atual = 30.3

DICPBiCGStab:  Solving for rho_a, Initial residual = 3.51477e-08, Final residual = 2.79872e-22, No Iterations 1
Instante atual = 30.4

DICPBiCGStab:  Solving for rho_a, Initial residual = 3.42231e-08, Final residual = 2.7056e-22, No Iterations 1
Instante atual = 30.5

DICPBiCGStab:  Solving for rho_a, Initial residual = 3.33229e-08, Final residual = 1.90232e-22, No Iterations 1
Instante atual = 30.6

DICPBiCGStab:  Solving for rho_a, Initial residual = 3.24463e-08, Final residual = 1.99971e-22, No Iterations 1
Instante atual = 30.7

DICPBiCGStab:  Solving for rho_a, Initial residual = 3.15928e-08, Final residual = 2.22431e-22, No Iterations 1
Instante atual = 30.8

DICPBiCGStab:  Solving for rho_a, Initial residual = 3.07617e-08, Final residual = 1.74833e-22, No Iterations 1
Instante atual = 30.9

DICPBiCGStab:  Solving for rho_a, Initial residual = 2.99525e-08, Final residual = 2.09694e-22, No Iterations 1
Instante atual = 31

DICPBiCGStab:  Solving for rho_a, Initial residual = 2.91646e-08, Final residual = 1.56939e-22, No Iterations 1
Instante atual = 31.1

DICPBiCGStab:  Solving for rho_a, Initial residual = 2.83974e-08, Final residual = 2.37198e-22, No Iterations 1
Instante atual = 31.2

DICPBiCGStab:  Solving for rho_a, Initial residual = 2.76504e-08, Final residual = 2.06885e-22, No Iterations 1
Instante atual = 31.3

DICPBiCGStab:  Solving for rho_a, Initial residual = 2.69231e-08, Final residual = 1.87455e-22, No Iterations 1
Instante atual = 31.4

DICPBiCGStab:  Solving for rho_a, Initial residual = 2.62148e-08, Final residual = 2.16968e-22, No Iterations 1
Instante atual = 31.5

DICPBiCGStab:  Solving for rho_a, Initial residual = 2.55252e-08, Final residual = 1.61805e-22, No Iterations 1
Instante atual = 31.6

DICPBiCGStab:  Solving for rho_a, Initial residual = 2.48538e-08, Final residual = 1.87447e-22, No Iterations 1
Instante atual = 31.7

DICPBiCGStab:  Solving for rho_a, Initial residual = 2.42e-08, Final residual = 1.94598e-22, No Iterations 1
Instante atual = 31.8

DICPBiCGStab:  Solving for rho_a, Initial residual = 2.35634e-08, Final residual = 1.60351e-22, No Iterations 1
Instante atual = 31.9

DICPBiCGStab:  Solving for rho_a, Initial residual = 2.29436e-08, Final residual = 1.67762e-22, No Iterations 1
Instante atual = 32

DICPBiCGStab:  Solving for rho_a, Initial residual = 2.234e-08, Final residual = 1.90307e-22, No Iterations 1
Instante atual = 32.1

DICPBiCGStab:  Solving for rho_a, Initial residual = 2.17524e-08, Final residual = 1.01308e-22, No Iterations 1
Instante atual = 32.2

DICPBiCGStab:  Solving for rho_a, Initial residual = 2.11802e-08, Final residual = 1.58658e-22, No Iterations 1
Instante atual = 32.3

DICPBiCGStab:  Solving for rho_a, Initial residual = 2.0623e-08, Final residual = 1.1043e-22, No Iterations 1
Instante atual = 32.4

DICPBiCGStab:  Solving for rho_a, Initial residual = 2.00805e-08, Final residual = 1.41554e-22, No Iterations 1
Instante atual = 32.5

DICPBiCGStab:  Solving for rho_a, Initial residual = 1.95523e-08, Final residual = 1.59932e-22, No Iterations 1
Instante atual = 32.6

DICPBiCGStab:  Solving for rho_a, Initial residual = 1.9038e-08, Final residual = 1.33877e-22, No Iterations 1
Instante atual = 32.7

DICPBiCGStab:  Solving for rho_a, Initial residual = 1.85372e-08, Final residual = 1.52248e-22, No Iterations 1
Instante atual = 32.8

DICPBiCGStab:  Solving for rho_a, Initial residual = 1.80495e-08, Final residual = 1.14786e-22, No Iterations 1
Instante atual = 32.9

DICPBiCGStab:  Solving for rho_a, Initial residual = 1.75748e-08, Final residual = 1.2638e-22, No Iterations 1
Instante atual = 33

DICPBiCGStab:  Solving for rho_a, Initial residual = 1.71124e-08, Final residual = 1.04414e-22, No Iterations 1
Instante atual = 33.1

DICPBiCGStab:  Solving for rho_a, Initial residual = 1.66623e-08, Final residual = 1.39245e-22, No Iterations 1
Instante atual = 33.2

DICPBiCGStab:  Solving for rho_a, Initial residual = 1.6224e-08, Final residual = 1.09611e-22, No Iterations 1
Instante atual = 33.3

DICPBiCGStab:  Solving for rho_a, Initial residual = 1.57972e-08, Final residual = 1.0279e-22, No Iterations 1
Instante atual = 33.4

DICPBiCGStab:  Solving for rho_a, Initial residual = 1.53817e-08, Final residual = 1.11301e-22, No Iterations 1
Instante atual = 33.5

DICPBiCGStab:  Solving for rho_a, Initial residual = 1.49771e-08, Final residual = 1.31682e-22, No Iterations 1
Instante atual = 33.6

DICPBiCGStab:  Solving for rho_a, Initial residual = 1.45831e-08, Final residual = 1.05795e-22, No Iterations 1
Instante atual = 33.7

DICPBiCGStab:  Solving for rho_a, Initial residual = 1.41995e-08, Final residual = 1.20894e-22, No Iterations 1
Instante atual = 33.8

DICPBiCGStab:  Solving for rho_a, Initial residual = 1.38259e-08, Final residual = 1.05988e-22, No Iterations 1
Instante atual = 33.9

DICPBiCGStab:  Solving for rho_a, Initial residual = 1.34623e-08, Final residual = 8.71891e-23, No Iterations 1
Instante atual = 34

DICPBiCGStab:  Solving for rho_a, Initial residual = 1.31081e-08, Final residual = 1.05636e-22, No Iterations 1
Instante atual = 34.1

DICPBiCGStab:  Solving for rho_a, Initial residual = 1.27633e-08, Final residual = 6.99034e-23, No Iterations 1
Instante atual = 34.2

DICPBiCGStab:  Solving for rho_a, Initial residual = 1.24276e-08, Final residual = 9.93232e-23, No Iterations 1
Instante atual = 34.3

DICPBiCGStab:  Solving for rho_a, Initial residual = 1.21007e-08, Final residual = 6.89344e-23, No Iterations 1
Instante atual = 34.4

DICPBiCGStab:  Solving for rho_a, Initial residual = 1.17824e-08, Final residual = 8.59957e-23, No Iterations 1
Instante atual = 34.5

DICPBiCGStab:  Solving for rho_a, Initial residual = 1.14724e-08, Final residual = 8.74569e-23, No Iterations 1
Instante atual = 34.6

DICPBiCGStab:  Solving for rho_a, Initial residual = 1.11706e-08, Final residual = 7.8065e-23, No Iterations 1
Instante atual = 34.7

DICPBiCGStab:  Solving for rho_a, Initial residual = 1.08768e-08, Final residual = 8.633e-23, No Iterations 1
Instante atual = 34.8

DICPBiCGStab:  Solving for rho_a, Initial residual = 1.05907e-08, Final residual = 7.20072e-23, No Iterations 1
Instante atual = 34.9

DICPBiCGStab:  Solving for rho_a, Initial residual = 1.03121e-08, Final residual = 6.85317e-23, No Iterations 1
Instante atual = 35

DICPBiCGStab:  Solving for rho_a, Initial residual = 1.00408e-08, Final residual = 7.24276e-23, No Iterations 1
Instante atual = 35.1

DICPBiCGStab:  Solving for rho_a, Initial residual = 9.77671e-09, Final residual = 6.99201e-23, No Iterations 1
Instante atual = 35.2

DICPBiCGStab:  Solving for rho_a, Initial residual = 9.51953e-09, Final residual = 6.00423e-23, No Iterations 1
Instante atual = 35.3

DICPBiCGStab:  Solving for rho_a, Initial residual = 9.26912e-09, Final residual = 6.16261e-23, No Iterations 1
Instante atual = 35.4

DICPBiCGStab:  Solving for rho_a, Initial residual = 9.02529e-09, Final residual = 6.62838e-23, No Iterations 1
Instante atual = 35.5

DICPBiCGStab:  Solving for rho_a, Initial residual = 8.78788e-09, Final residual = 6.15487e-23, No Iterations 1
Instante atual = 35.6

DICPBiCGStab:  Solving for rho_a, Initial residual = 8.55672e-09, Final residual = 4.87361e-23, No Iterations 1
Instante atual = 35.7

DICPBiCGStab:  Solving for rho_a, Initial residual = 8.33163e-09, Final residual = 6.21674e-23, No Iterations 1
Instante atual = 35.8

DICPBiCGStab:  Solving for rho_a, Initial residual = 8.11247e-09, Final residual = 5.56458e-23, No Iterations 1
Instante atual = 35.9

DICPBiCGStab:  Solving for rho_a, Initial residual = 7.89907e-09, Final residual = 6.33615e-23, No Iterations 1
Instante atual = 36

DICPBiCGStab:  Solving for rho_a, Initial residual = 7.69129e-09, Final residual = 6.39393e-23, No Iterations 1
Instante atual = 36.1

DICPBiCGStab:  Solving for rho_a, Initial residual = 7.48897e-09, Final residual = 4.38236e-23, No Iterations 1
Instante atual = 36.2

DICPBiCGStab:  Solving for rho_a, Initial residual = 7.29197e-09, Final residual = 5.984e-23, No Iterations 1
Instante atual = 36.3

DICPBiCGStab:  Solving for rho_a, Initial residual = 7.10015e-09, Final residual = 5.47919e-23, No Iterations 1
Instante atual = 36.4

DICPBiCGStab:  Solving for rho_a, Initial residual = 6.91339e-09, Final residual = 6.75589e-23, No Iterations 1
Instante atual = 36.5

DICPBiCGStab:  Solving for rho_a, Initial residual = 6.73153e-09, Final residual = 5.97626e-23, No Iterations 1
Instante atual = 36.6

DICPBiCGStab:  Solving for rho_a, Initial residual = 6.55446e-09, Final residual = 4.19838e-23, No Iterations 1
Instante atual = 36.7

DICPBiCGStab:  Solving for rho_a, Initial residual = 6.38204e-09, Final residual = 5.01301e-23, No Iterations 1
Instante atual = 36.8

DICPBiCGStab:  Solving for rho_a, Initial residual = 6.21416e-09, Final residual = 3.80714e-23, No Iterations 1
Instante atual = 36.9

DICPBiCGStab:  Solving for rho_a, Initial residual = 6.0507e-09, Final residual = 3.3846e-23, No Iterations 1
Instante atual = 37

DICPBiCGStab:  Solving for rho_a, Initial residual = 5.89153e-09, Final residual = 3.84348e-23, No Iterations 1
Instante atual = 37.1

DICPBiCGStab:  Solving for rho_a, Initial residual = 5.73656e-09, Final residual = 3.4156e-23, No Iterations 1
Instante atual = 37.2

DICPBiCGStab:  Solving for rho_a, Initial residual = 5.58566e-09, Final residual = 3.80456e-23, No Iterations 1
Instante atual = 37.3

DICPBiCGStab:  Solving for rho_a, Initial residual = 5.43873e-09, Final residual = 3.78341e-23, No Iterations 1
Instante atual = 37.4

DICPBiCGStab:  Solving for rho_a, Initial residual = 5.29566e-09, Final residual = 3.08704e-23, No Iterations 1
Instante atual = 37.5

DICPBiCGStab:  Solving for rho_a, Initial residual = 5.15636e-09, Final residual = 3.34912e-23, No Iterations 1
Instante atual = 37.6

DICPBiCGStab:  Solving for rho_a, Initial residual = 5.02072e-09, Final residual = 4.06769e-23, No Iterations 1
Instante atual = 37.7

DICPBiCGStab:  Solving for rho_a, Initial residual = 4.88865e-09, Final residual = 3.14713e-23, No Iterations 1
Instante atual = 37.8

DICPBiCGStab:  Solving for rho_a, Initial residual = 4.76006e-09, Final residual = 2.31852e-23, No Iterations 1
Instante atual = 37.9

DICPBiCGStab:  Solving for rho_a, Initial residual = 4.63484e-09, Final residual = 2.70514e-23, No Iterations 1
Instante atual = 38

DICPBiCGStab:  Solving for rho_a, Initial residual = 4.51292e-09, Final residual = 2.96673e-23, No Iterations 1
Instante atual = 38.1

DICPBiCGStab:  Solving for rho_a, Initial residual = 4.39421e-09, Final residual = 2.81406e-23, No Iterations 1
Instante atual = 38.2

DICPBiCGStab:  Solving for rho_a, Initial residual = 4.27862e-09, Final residual = 2.71558e-23, No Iterations 1
Instante atual = 38.3

DICPBiCGStab:  Solving for rho_a, Initial residual = 4.16607e-09, Final residual = 2.84187e-23, No Iterations 1
Instante atual = 38.4

DICPBiCGStab:  Solving for rho_a, Initial residual = 4.05649e-09, Final residual = 3.56998e-23, No Iterations 1
Instante atual = 38.5

DICPBiCGStab:  Solving for rho_a, Initial residual = 3.94978e-09, Final residual = 2.43643e-23, No Iterations 1
Instante atual = 38.6

DICPBiCGStab:  Solving for rho_a, Initial residual = 3.84588e-09, Final residual = 2.82129e-23, No Iterations 1
Instante atual = 38.7

DICPBiCGStab:  Solving for rho_a, Initial residual = 3.74472e-09, Final residual = 3.20774e-23, No Iterations 1
Instante atual = 38.8

DICPBiCGStab:  Solving for rho_a, Initial residual = 3.64621e-09, Final residual = 2.84101e-23, No Iterations 1
Instante atual = 38.9

DICPBiCGStab:  Solving for rho_a, Initial residual = 3.5503e-09, Final residual = 2.70191e-23, No Iterations 1
Instante atual = 39

DICPBiCGStab:  Solving for rho_a, Initial residual = 3.45691e-09, Final residual = 2.69226e-23, No Iterations 1
Instante atual = 39.1

DICPBiCGStab:  Solving for rho_a, Initial residual = 3.36597e-09, Final residual = 2.29741e-23, No Iterations 1
Instante atual = 39.2

DICPBiCGStab:  Solving for rho_a, Initial residual = 3.27743e-09, Final residual = 1.75448e-23, No Iterations 1
Instante atual = 39.3

DICPBiCGStab:  Solving for rho_a, Initial residual = 3.19122e-09, Final residual = 1.83288e-23, No Iterations 1
Instante atual = 39.4

DICPBiCGStab:  Solving for rho_a, Initial residual = 3.10727e-09, Final residual = 1.92718e-23, No Iterations 1
Instante atual = 39.5

DICPBiCGStab:  Solving for rho_a, Initial residual = 3.02554e-09, Final residual = 2.20752e-23, No Iterations 1
Instante atual = 39.6

DICPBiCGStab:  Solving for rho_a, Initial residual = 2.94595e-09, Final residual = 1.9116e-23, No Iterations 1
Instante atual = 39.7

DICPBiCGStab:  Solving for rho_a, Initial residual = 2.86846e-09, Final residual = 2.00979e-23, No Iterations 1
Instante atual = 39.8

DICPBiCGStab:  Solving for rho_a, Initial residual = 2.793e-09, Final residual = 2.19348e-23, No Iterations 1
Instante atual = 39.9

DICPBiCGStab:  Solving for rho_a, Initial residual = 2.71953e-09, Final residual = 1.98042e-23, No Iterations 1
Instante atual = 40

DICPBiCGStab:  Solving for rho_a, Initial residual = 2.648e-09, Final residual = 2.00014e-23, No Iterations 1
Instante atual = 40.1

DICPBiCGStab:  Solving for rho_a, Initial residual = 2.57834e-09, Final residual = 1.54066e-23, No Iterations 1
Instante atual = 40.2

DICPBiCGStab:  Solving for rho_a, Initial residual = 2.51052e-09, Final residual = 1.43597e-23, No Iterations 1
Instante atual = 40.3

DICPBiCGStab:  Solving for rho_a, Initial residual = 2.44448e-09, Final residual = 1.58219e-23, No Iterations 1
Instante atual = 40.4

DICPBiCGStab:  Solving for rho_a, Initial residual = 2.38018e-09, Final residual = 1.58999e-23, No Iterations 1
Instante atual = 40.5

DICPBiCGStab:  Solving for rho_a, Initial residual = 2.31757e-09, Final residual = 1.64498e-23, No Iterations 1
Instante atual = 40.6

DICPBiCGStab:  Solving for rho_a, Initial residual = 2.2566e-09, Final residual = 1.60071e-23, No Iterations 1
Instante atual = 40.7

DICPBiCGStab:  Solving for rho_a, Initial residual = 2.19724e-09, Final residual = 1.34636e-23, No Iterations 1
Instante atual = 40.8

DICPBiCGStab:  Solving for rho_a, Initial residual = 2.13945e-09, Final residual = 1.541e-23, No Iterations 1
Instante atual = 40.9

DICPBiCGStab:  Solving for rho_a, Initial residual = 2.08317e-09, Final residual = 1.45783e-23, No Iterations 1
Instante atual = 41

DICPBiCGStab:  Solving for rho_a, Initial residual = 2.02837e-09, Final residual = 1.29671e-23, No Iterations 1
Instante atual = 41.1

DICPBiCGStab:  Solving for rho_a, Initial residual = 1.97501e-09, Final residual = 1.32552e-23, No Iterations 1
Instante atual = 41.2

DICPBiCGStab:  Solving for rho_a, Initial residual = 1.92306e-09, Final residual = 1.3112e-23, No Iterations 1
Instante atual = 41.3

DICPBiCGStab:  Solving for rho_a, Initial residual = 1.87248e-09, Final residual = 1.36246e-23, No Iterations 1
Instante atual = 41.4

DICPBiCGStab:  Solving for rho_a, Initial residual = 1.82322e-09, Final residual = 1.20977e-23, No Iterations 1
Instante atual = 41.5

DICPBiCGStab:  Solving for rho_a, Initial residual = 1.77526e-09, Final residual = 1.47485e-23, No Iterations 1
Instante atual = 41.6

DICPBiCGStab:  Solving for rho_a, Initial residual = 1.72856e-09, Final residual = 9.97849e-24, No Iterations 1
Instante atual = 41.7

DICPBiCGStab:  Solving for rho_a, Initial residual = 1.68309e-09, Final residual = 1.21403e-23, No Iterations 1
Instante atual = 41.8

DICPBiCGStab:  Solving for rho_a, Initial residual = 1.63882e-09, Final residual = 1.1839e-23, No Iterations 1
Instante atual = 41.9

DICPBiCGStab:  Solving for rho_a, Initial residual = 1.59571e-09, Final residual = 1.1072e-23, No Iterations 1
Instante atual = 42

DICPBiCGStab:  Solving for rho_a, Initial residual = 1.55374e-09, Final residual = 1.18664e-23, No Iterations 1
Instante atual = 42.1

DICPBiCGStab:  Solving for rho_a, Initial residual = 1.51287e-09, Final residual = 1.01005e-23, No Iterations 1
Instante atual = 42.2

DICPBiCGStab:  Solving for rho_a, Initial residual = 1.47307e-09, Final residual = 9.26777e-24, No Iterations 1
Instante atual = 42.3

DICPBiCGStab:  Solving for rho_a, Initial residual = 1.43432e-09, Final residual = 1.13868e-23, No Iterations 1
Instante atual = 42.4

DICPBiCGStab:  Solving for rho_a, Initial residual = 1.39659e-09, Final residual = 8.27e-24, No Iterations 1
Instante atual = 42.5

DICPBiCGStab:  Solving for rho_a, Initial residual = 1.35985e-09, Final residual = 1.06762e-23, No Iterations 1
Instante atual = 42.6

DICPBiCGStab:  Solving for rho_a, Initial residual = 1.32408e-09, Final residual = 1.09145e-23, No Iterations 1
Instante atual = 42.7

DICPBiCGStab:  Solving for rho_a, Initial residual = 1.28925e-09, Final residual = 1.06168e-23, No Iterations 1
Instante atual = 42.8

DICPBiCGStab:  Solving for rho_a, Initial residual = 1.25534e-09, Final residual = 1.07308e-23, No Iterations 1
Instante atual = 42.9

DICPBiCGStab:  Solving for rho_a, Initial residual = 1.22232e-09, Final residual = 8.54064e-24, No Iterations 1
Instante atual = 43

DICPBiCGStab:  Solving for rho_a, Initial residual = 1.19017e-09, Final residual = 6.92559e-24, No Iterations 1
Instante atual = 43.1

DICPBiCGStab:  Solving for rho_a, Initial residual = 1.15886e-09, Final residual = 7.24379e-24, No Iterations 1
Instante atual = 43.2

DICPBiCGStab:  Solving for rho_a, Initial residual = 1.12837e-09, Final residual = 7.50603e-24, No Iterations 1
Instante atual = 43.3

DICPBiCGStab:  Solving for rho_a, Initial residual = 1.09869e-09, Final residual = 7.53932e-24, No Iterations 1
Instante atual = 43.4

DICPBiCGStab:  Solving for rho_a, Initial residual = 1.06979e-09, Final residual = 6.34247e-24, No Iterations 1
Instante atual = 43.5

DICPBiCGStab:  Solving for rho_a, Initial residual = 1.04165e-09, Final residual = 8.82611e-24, No Iterations 1
Instante atual = 43.6

DICPBiCGStab:  Solving for rho_a, Initial residual = 1.01425e-09, Final residual = 5.93419e-24, No Iterations 1
Instante atual = 43.7

DICPBiCGStab:  Solving for rho_a, Initial residual = 9.87571e-10, Final residual = 7.13272e-24, No Iterations 1
Instante atual = 43.8

DICPBiCGStab:  Solving for rho_a, Initial residual = 9.61593e-10, Final residual = 7.80863e-24, No Iterations 1
Instante atual = 43.9

DICPBiCGStab:  Solving for rho_a, Initial residual = 9.36298e-10, Final residual = 7.03778e-24, No Iterations 1
Instante atual = 44

DICPBiCGStab:  Solving for rho_a, Initial residual = 9.11669e-10, Final residual = 6.33728e-24, No Iterations 1
Instante atual = 44.1

DICPBiCGStab:  Solving for rho_a, Initial residual = 8.87688e-10, Final residual = 7.76212e-24, No Iterations 1
Instante atual = 44.2

DICPBiCGStab:  Solving for rho_a, Initial residual = 8.64337e-10, Final residual = 7.51902e-24, No Iterations 1
Instante atual = 44.3

DICPBiCGStab:  Solving for rho_a, Initial residual = 8.41601e-10, Final residual = 6.46857e-24, No Iterations 1
Instante atual = 44.4

DICPBiCGStab:  Solving for rho_a, Initial residual = 8.19462e-10, Final residual = 5.14819e-24, No Iterations 1
Instante atual = 44.5

DICPBiCGStab:  Solving for rho_a, Initial residual = 7.97907e-10, Final residual = 4.96929e-24, No Iterations 1
Instante atual = 44.6

DICPBiCGStab:  Solving for rho_a, Initial residual = 7.76918e-10, Final residual = 6.08155e-24, No Iterations 1
Instante atual = 44.7

DICPBiCGStab:  Solving for rho_a, Initial residual = 7.56481e-10, Final residual = 5.26215e-24, No Iterations 1
Instante atual = 44.8

DICPBiCGStab:  Solving for rho_a, Initial residual = 7.36582e-10, Final residual = 4.44903e-24, No Iterations 1
Instante atual = 44.9

DICPBiCGStab:  Solving for rho_a, Initial residual = 7.17206e-10, Final residual = 5.71274e-24, No Iterations 1
Instante atual = 45

DICPBiCGStab:  Solving for rho_a, Initial residual = 6.98341e-10, Final residual = 4.23868e-24, No Iterations 1
Instante atual = 45.1

DICPBiCGStab:  Solving for rho_a, Initial residual = 6.79971e-10, Final residual = 6.07834e-24, No Iterations 1
Instante atual = 45.2

DICPBiCGStab:  Solving for rho_a, Initial residual = 6.62084e-10, Final residual = 5.45721e-24, No Iterations 1
Instante atual = 45.3

DICPBiCGStab:  Solving for rho_a, Initial residual = 6.44668e-10, Final residual = 4.95306e-24, No Iterations 1
Instante atual = 45.4

DICPBiCGStab:  Solving for rho_a, Initial residual = 6.2771e-10, Final residual = 4.71729e-24, No Iterations 1
Instante atual = 45.5

DICPBiCGStab:  Solving for rho_a, Initial residual = 6.11198e-10, Final residual = 3.64245e-24, No Iterations 1
Instante atual = 45.6

DICPBiCGStab:  Solving for rho_a, Initial residual = 5.95121e-10, Final residual = 3.70653e-24, No Iterations 1
Instante atual = 45.7

DICPBiCGStab:  Solving for rho_a, Initial residual = 5.79467e-10, Final residual = 3.28687e-24, No Iterations 1
Instante atual = 45.8

DICPBiCGStab:  Solving for rho_a, Initial residual = 5.64224e-10, Final residual = 2.82499e-24, No Iterations 1
Instante atual = 45.9

DICPBiCGStab:  Solving for rho_a, Initial residual = 5.49382e-10, Final residual = 3.98132e-24, No Iterations 1
Instante atual = 46

DICPBiCGStab:  Solving for rho_a, Initial residual = 5.3493e-10, Final residual = 4.14068e-24, No Iterations 1
Instante atual = 46.1

DICPBiCGStab:  Solving for rho_a, Initial residual = 5.20859e-10, Final residual = 3.01124e-24, No Iterations 1
Instante atual = 46.2

DICPBiCGStab:  Solving for rho_a, Initial residual = 5.07158e-10, Final residual = 4.58413e-24, No Iterations 1
Instante atual = 46.3

DICPBiCGStab:  Solving for rho_a, Initial residual = 4.93818e-10, Final residual = 3.22738e-24, No Iterations 1
Instante atual = 46.4

DICPBiCGStab:  Solving for rho_a, Initial residual = 4.80828e-10, Final residual = 3.28865e-24, No Iterations 1
Instante atual = 46.5

DICPBiCGStab:  Solving for rho_a, Initial residual = 4.6818e-10, Final residual = 3.44633e-24, No Iterations 1
Instante atual = 46.6

DICPBiCGStab:  Solving for rho_a, Initial residual = 4.55864e-10, Final residual = 2.63641e-24, No Iterations 1
Instante atual = 46.7

DICPBiCGStab:  Solving for rho_a, Initial residual = 4.43873e-10, Final residual = 3.14239e-24, No Iterations 1
Instante atual = 46.8

DICPBiCGStab:  Solving for rho_a, Initial residual = 4.32196e-10, Final residual = 3.33411e-24, No Iterations 1
Instante atual = 46.9

DICPBiCGStab:  Solving for rho_a, Initial residual = 4.20828e-10, Final residual = 2.18884e-24, No Iterations 1
Instante atual = 47

DICPBiCGStab:  Solving for rho_a, Initial residual = 4.09758e-10, Final residual = 2.85574e-24, No Iterations 1
Instante atual = 47.1

DICPBiCGStab:  Solving for rho_a, Initial residual = 3.98979e-10, Final residual = 2.98526e-24, No Iterations 1
Instante atual = 47.2

DICPBiCGStab:  Solving for rho_a, Initial residual = 3.88484e-10, Final residual = 2.98418e-24, No Iterations 1
Instante atual = 47.3

DICPBiCGStab:  Solving for rho_a, Initial residual = 3.78265e-10, Final residual = 2.79548e-24, No Iterations 1
Instante atual = 47.4

DICPBiCGStab:  Solving for rho_a, Initial residual = 3.68315e-10, Final residual = 2.77932e-24, No Iterations 1
Instante atual = 47.5

DICPBiCGStab:  Solving for rho_a, Initial residual = 3.58626e-10, Final residual = 2.10287e-24, No Iterations 1
Instante atual = 47.6

DICPBiCGStab:  Solving for rho_a, Initial residual = 3.49193e-10, Final residual = 2.39245e-24, No Iterations 1
Instante atual = 47.7

DICPBiCGStab:  Solving for rho_a, Initial residual = 3.40007e-10, Final residual = 2.04046e-24, No Iterations 1
Instante atual = 47.8

DICPBiCGStab:  Solving for rho_a, Initial residual = 3.31063e-10, Final residual = 2.0301e-24, No Iterations 1
Instante atual = 47.9

DICPBiCGStab:  Solving for rho_a, Initial residual = 3.22355e-10, Final residual = 2.00692e-24, No Iterations 1
Instante atual = 48

DICPBiCGStab:  Solving for rho_a, Initial residual = 3.13876e-10, Final residual = 2.32461e-24, No Iterations 1
Instante atual = 48.1

DICPBiCGStab:  Solving for rho_a, Initial residual = 3.05619e-10, Final residual = 1.60961e-24, No Iterations 1
Instante atual = 48.2

DICPBiCGStab:  Solving for rho_a, Initial residual = 2.9758e-10, Final residual = 2.10906e-24, No Iterations 1
Instante atual = 48.3

DICPBiCGStab:  Solving for rho_a, Initial residual = 2.89752e-10, Final residual = 2.02933e-24, No Iterations 1
Instante atual = 48.4

DICPBiCGStab:  Solving for rho_a, Initial residual = 2.8213e-10, Final residual = 1.8943e-24, No Iterations 1
Instante atual = 48.5

DICPBiCGStab:  Solving for rho_a, Initial residual = 2.74709e-10, Final residual = 2.76893e-24, No Iterations 1
Instante atual = 48.6

DICPBiCGStab:  Solving for rho_a, Initial residual = 2.67482e-10, Final residual = 1.46106e-24, No Iterations 1
Instante atual = 48.7

DICPBiCGStab:  Solving for rho_a, Initial residual = 2.60446e-10, Final residual = 2.05422e-24, No Iterations 1
Instante atual = 48.8

DICPBiCGStab:  Solving for rho_a, Initial residual = 2.53596e-10, Final residual = 1.75219e-24, No Iterations 1
Instante atual = 48.9

DICPBiCGStab:  Solving for rho_a, Initial residual = 2.46925e-10, Final residual = 1.55584e-24, No Iterations 1
Instante atual = 49

DICPBiCGStab:  Solving for rho_a, Initial residual = 2.40429e-10, Final residual = 1.73616e-24, No Iterations 1
Instante atual = 49.1

DICPBiCGStab:  Solving for rho_a, Initial residual = 2.34105e-10, Final residual = 2.00277e-24, No Iterations 1
Instante atual = 49.2

DICPBiCGStab:  Solving for rho_a, Initial residual = 2.27947e-10, Final residual = 1.80785e-24, No Iterations 1
Instante atual = 49.3

DICPBiCGStab:  Solving for rho_a, Initial residual = 2.21951e-10, Final residual = 1.23286e-24, No Iterations 1
Instante atual = 49.4

DICPBiCGStab:  Solving for rho_a, Initial residual = 2.16112e-10, Final residual = 1.7278e-24, No Iterations 1
Instante atual = 49.5

DICPBiCGStab:  Solving for rho_a, Initial residual = 2.10428e-10, Final residual = 1.33301e-24, No Iterations 1
Instante atual = 49.6

DICPBiCGStab:  Solving for rho_a, Initial residual = 2.04892e-10, Final residual = 1.61671e-24, No Iterations 1
Instante atual = 49.7

DICPBiCGStab:  Solving for rho_a, Initial residual = 1.99502e-10, Final residual = 1.47929e-24, No Iterations 1
Instante atual = 49.8

DICPBiCGStab:  Solving for rho_a, Initial residual = 1.94255e-10, Final residual = 9.60253e-25, No Iterations 1
Instante atual = 49.9

DICPBiCGStab:  Solving for rho_a, Initial residual = 1.89144e-10, Final residual = 1.38734e-24, No Iterations 1
Instante atual = 50

DICPBiCGStab:  Solving for rho_a, Initial residual = 1.84169e-10, Final residual = 1.49726e-24, No Iterations 1
Instante atual = 50.1

DICPBiCGStab:  Solving for rho_a, Initial residual = 1.79325e-10, Final residual = 1.11736e-24, No Iterations 1
Instante atual = 50.2

DICPBiCGStab:  Solving for rho_a, Initial residual = 1.74608e-10, Final residual = 1.30713e-24, No Iterations 1
Instante atual = 50.3

DICPBiCGStab:  Solving for rho_a, Initial residual = 1.70015e-10, Final residual = 1.16797e-24, No Iterations 1
Instante atual = 50.4

DICPBiCGStab:  Solving for rho_a, Initial residual = 1.65543e-10, Final residual = 1.16325e-24, No Iterations 1
Instante atual = 50.5

DICPBiCGStab:  Solving for rho_a, Initial residual = 1.61188e-10, Final residual = 1.20282e-24, No Iterations 1
Instante atual = 50.6

DICPBiCGStab:  Solving for rho_a, Initial residual = 1.56948e-10, Final residual = 1.06893e-24, No Iterations 1
Instante atual = 50.7

DICPBiCGStab:  Solving for rho_a, Initial residual = 1.52819e-10, Final residual = 1.15876e-24, No Iterations 1
Instante atual = 50.8

DICPBiCGStab:  Solving for rho_a, Initial residual = 1.488e-10, Final residual = 9.73809e-25, No Iterations 1
Instante atual = 50.9

DICPBiCGStab:  Solving for rho_a, Initial residual = 1.44885e-10, Final residual = 1.13519e-24, No Iterations 1
Instante atual = 51

DICPBiCGStab:  Solving for rho_a, Initial residual = 1.41074e-10, Final residual = 1.02318e-24, No Iterations 1
Instante atual = 51.1

DICPBiCGStab:  Solving for rho_a, Initial residual = 1.37363e-10, Final residual = 8.59905e-25, No Iterations 1
Instante atual = 51.2

DICPBiCGStab:  Solving for rho_a, Initial residual = 1.3375e-10, Final residual = 8.47972e-25, No Iterations 1
Instante atual = 51.3

DICPBiCGStab:  Solving for rho_a, Initial residual = 1.30232e-10, Final residual = 7.73411e-25, No Iterations 1
Instante atual = 51.4

DICPBiCGStab:  Solving for rho_a, Initial residual = 1.26806e-10, Final residual = 1.10351e-24, No Iterations 1
Instante atual = 51.5

DICPBiCGStab:  Solving for rho_a, Initial residual = 1.23471e-10, Final residual = 9.21405e-25, No Iterations 1
Instante atual = 51.6

DICPBiCGStab:  Solving for rho_a, Initial residual = 1.20222e-10, Final residual = 1.03662e-24, No Iterations 1
Instante atual = 51.7

DICPBiCGStab:  Solving for rho_a, Initial residual = 1.1706e-10, Final residual = 8.18373e-25, No Iterations 1
Instante atual = 51.8

DICPBiCGStab:  Solving for rho_a, Initial residual = 1.13981e-10, Final residual = 4.44332e-25, No Iterations 1
Instante atual = 51.9

DICPBiCGStab:  Solving for rho_a, Initial residual = 1.10983e-10, Final residual = 6.90907e-25, No Iterations 1
Instante atual = 52

DICPBiCGStab:  Solving for rho_a, Initial residual = 1.08063e-10, Final residual = 7.28892e-25, No Iterations 1
Instante atual = 52.1

DICPBiCGStab:  Solving for rho_a, Initial residual = 1.05221e-10, Final residual = 7.7363e-25, No Iterations 1
Instante atual = 52.2

DICPBiCGStab:  Solving for rho_a, Initial residual = 1.02453e-10, Final residual = 7.6484e-25, No Iterations 1
Instante atual = 52.3

DICPBiCGStab:  Solving for rho_a, Initial residual = 9.97578e-11, Final residual = 6.5691e-25, No Iterations 1
Instante atual = 52.4

DICPBiCGStab:  Solving for rho_a, Initial residual = 9.71339e-11, Final residual = 7.87391e-25, No Iterations 1
Instante atual = 52.5

DICPBiCGStab:  Solving for rho_a, Initial residual = 9.45781e-11, Final residual = 8.01543e-25, No Iterations 1
Instante atual = 52.6

DICPBiCGStab:  Solving for rho_a, Initial residual = 9.20907e-11, Final residual = 8.04385e-25, No Iterations 1
Instante atual = 52.7

DICPBiCGStab:  Solving for rho_a, Initial residual = 8.96687e-11, Final residual = 5.95837e-25, No Iterations 1
Instante atual = 52.8

DICPBiCGStab:  Solving for rho_a, Initial residual = 8.73098e-11, Final residual = 5.40045e-25, No Iterations 1
Instante atual = 52.9

DICPBiCGStab:  Solving for rho_a, Initial residual = 8.5013e-11, Final residual = 4.69848e-25, No Iterations 1
Instante atual = 53

DICPBiCGStab:  Solving for rho_a, Initial residual = 8.27766e-11, Final residual = 5.32745e-25, No Iterations 1
Instante atual = 53.1

DICPBiCGStab:  Solving for rho_a, Initial residual = 8.05993e-11, Final residual = 6.1548e-25, No Iterations 1
Instante atual = 53.2

DICPBiCGStab:  Solving for rho_a, Initial residual = 7.84792e-11, Final residual = 6.83487e-25, No Iterations 1
Instante atual = 53.3

DICPBiCGStab:  Solving for rho_a, Initial residual = 7.64146e-11, Final residual = 5.1818e-25, No Iterations 1
Instante atual = 53.4

DICPBiCGStab:  Solving for rho_a, Initial residual = 7.44045e-11, Final residual = 5.44265e-25, No Iterations 1
Instante atual = 53.5

DICPBiCGStab:  Solving for rho_a, Initial residual = 7.24476e-11, Final residual = 5.55248e-25, No Iterations 1
Instante atual = 53.6

DICPBiCGStab:  Solving for rho_a, Initial residual = 7.05416e-11, Final residual = 4.55871e-25, No Iterations 1
Instante atual = 53.7

DICPBiCGStab:  Solving for rho_a, Initial residual = 6.86859e-11, Final residual = 4.45388e-25, No Iterations 1
Instante atual = 53.8

DICPBiCGStab:  Solving for rho_a, Initial residual = 6.68794e-11, Final residual = 5.696e-25, No Iterations 1
Instante atual = 53.9

DICPBiCGStab:  Solving for rho_a, Initial residual = 6.512e-11, Final residual = 4.69358e-25, No Iterations 1
Instante atual = 54

DICPBiCGStab:  Solving for rho_a, Initial residual = 6.34072e-11, Final residual = 4.41281e-25, No Iterations 1
Instante atual = 54.1

DICPBiCGStab:  Solving for rho_a, Initial residual = 6.17391e-11, Final residual = 4.04201e-25, No Iterations 1
Instante atual = 54.2

DICPBiCGStab:  Solving for rho_a, Initial residual = 6.01148e-11, Final residual = 4.83464e-25, No Iterations 1
Instante atual = 54.3

DICPBiCGStab:  Solving for rho_a, Initial residual = 5.85338e-11, Final residual = 4.66278e-25, No Iterations 1
Instante atual = 54.4

DICPBiCGStab:  Solving for rho_a, Initial residual = 5.69941e-11, Final residual = 3.42281e-25, No Iterations 1
Instante atual = 54.5

DICPBiCGStab:  Solving for rho_a, Initial residual = 5.54947e-11, Final residual = 4.11992e-25, No Iterations 1
Instante atual = 54.6

DICPBiCGStab:  Solving for rho_a, Initial residual = 5.40349e-11, Final residual = 3.42559e-25, No Iterations 1
Instante atual = 54.7

DICPBiCGStab:  Solving for rho_a, Initial residual = 5.26137e-11, Final residual = 3.72677e-25, No Iterations 1
Instante atual = 54.8

DICPBiCGStab:  Solving for rho_a, Initial residual = 5.12294e-11, Final residual = 3.35702e-25, No Iterations 1
Instante atual = 54.9

DICPBiCGStab:  Solving for rho_a, Initial residual = 4.98823e-11, Final residual = 3.63722e-25, No Iterations 1
Instante atual = 55

DICPBiCGStab:  Solving for rho_a, Initial residual = 4.857e-11, Final residual = 3.40891e-25, No Iterations 1
Instante atual = 55.1

DICPBiCGStab:  Solving for rho_a, Initial residual = 4.72925e-11, Final residual = 2.95926e-25, No Iterations 1
Instante atual = 55.2

DICPBiCGStab:  Solving for rho_a, Initial residual = 4.60483e-11, Final residual = 3.92338e-25, No Iterations 1
Instante atual = 55.3

DICPBiCGStab:  Solving for rho_a, Initial residual = 4.48371e-11, Final residual = 3.54938e-25, No Iterations 1
Instante atual = 55.4

DICPBiCGStab:  Solving for rho_a, Initial residual = 4.36571e-11, Final residual = 2.52772e-25, No Iterations 1
Instante atual = 55.5

DICPBiCGStab:  Solving for rho_a, Initial residual = 4.2509e-11, Final residual = 3.06485e-25, No Iterations 1
Instante atual = 55.6

DICPBiCGStab:  Solving for rho_a, Initial residual = 4.13914e-11, Final residual = 2.86013e-25, No Iterations 1
Instante atual = 55.7

DICPBiCGStab:  Solving for rho_a, Initial residual = 4.03019e-11, Final residual = 3.24206e-25, No Iterations 1
Instante atual = 55.8

DICPBiCGStab:  Solving for rho_a, Initial residual = 3.92419e-11, Final residual = 2.70648e-25, No Iterations 1
Instante atual = 55.9

DICPBiCGStab:  Solving for rho_a, Initial residual = 3.82099e-11, Final residual = 2.58691e-25, No Iterations 1
Instante atual = 56

DICPBiCGStab:  Solving for rho_a, Initial residual = 3.72046e-11, Final residual = 2.49224e-25, No Iterations 1
Instante atual = 56.1

DICPBiCGStab:  Solving for rho_a, Initial residual = 3.62262e-11, Final residual = 2.49631e-25, No Iterations 1
Instante atual = 56.2

DICPBiCGStab:  Solving for rho_a, Initial residual = 3.52732e-11, Final residual = 2.16619e-25, No Iterations 1
Instante atual = 56.3

DICPBiCGStab:  Solving for rho_a, Initial residual = 3.43452e-11, Final residual = 3.37706e-25, No Iterations 1
Instante atual = 56.4

DICPBiCGStab:  Solving for rho_a, Initial residual = 3.34416e-11, Final residual = 1.92556e-25, No Iterations 1
Instante atual = 56.5

DICPBiCGStab:  Solving for rho_a, Initial residual = 3.25624e-11, Final residual = 2.28461e-25, No Iterations 1
Instante atual = 56.6

DICPBiCGStab:  Solving for rho_a, Initial residual = 3.17056e-11, Final residual = 2.95694e-25, No Iterations 1
Instante atual = 56.7

DICPBiCGStab:  Solving for rho_a, Initial residual = 3.08716e-11, Final residual = 1.69356e-25, No Iterations 1
Instante atual = 56.8

DICPBiCGStab:  Solving for rho_a, Initial residual = 3.00593e-11, Final residual = 1.85512e-25, No Iterations 1
Instante atual = 56.9

DICPBiCGStab:  Solving for rho_a, Initial residual = 2.92686e-11, Final residual = 2.2759e-25, No Iterations 1
Instante atual = 57

DICPBiCGStab:  Solving for rho_a, Initial residual = 2.84993e-11, Final residual = 2.08129e-25, No Iterations 1
Instante atual = 57.1

DICPBiCGStab:  Solving for rho_a, Initial residual = 2.77494e-11, Final residual = 2.15679e-25, No Iterations 1
Instante atual = 57.2

DICPBiCGStab:  Solving for rho_a, Initial residual = 2.70197e-11, Final residual = 2.03798e-25, No Iterations 1
Instante atual = 57.3

DICPBiCGStab:  Solving for rho_a, Initial residual = 2.63087e-11, Final residual = 2.15202e-25, No Iterations 1
Instante atual = 57.4

DICPBiCGStab:  Solving for rho_a, Initial residual = 2.56166e-11, Final residual = 1.51647e-25, No Iterations 1
Instante atual = 57.5

DICPBiCGStab:  Solving for rho_a, Initial residual = 2.49425e-11, Final residual = 1.75851e-25, No Iterations 1
Instante atual = 57.6

DICPBiCGStab:  Solving for rho_a, Initial residual = 2.42864e-11, Final residual = 1.94309e-25, No Iterations 1
Instante atual = 57.7

DICPBiCGStab:  Solving for rho_a, Initial residual = 2.36479e-11, Final residual = 1.29092e-25, No Iterations 1
Instante atual = 57.8

DICPBiCGStab:  Solving for rho_a, Initial residual = 2.30259e-11, Final residual = 1.50428e-25, No Iterations 1
Instante atual = 57.9

DICPBiCGStab:  Solving for rho_a, Initial residual = 2.24201e-11, Final residual = 1.58996e-25, No Iterations 1
Instante atual = 58

DICPBiCGStab:  Solving for rho_a, Initial residual = 2.18301e-11, Final residual = 1.62889e-25, No Iterations 1
Instante atual = 58.1

DICPBiCGStab:  Solving for rho_a, Initial residual = 2.12561e-11, Final residual = 1.36196e-25, No Iterations 1
Instante atual = 58.2

[...]
Instante atual = 185.4

DICPBiCGStab:  Solving for rho_a, Initial residual = 1.13273e-15, Final residual = 2.0816e-30, No Iterations 1
Instante atual = 185.5

DICPBiCGStab:  Solving for rho_a, Initial residual = 1.28098e-15, Final residual = 1.09729e-29, No Iterations 1
Instante atual = 185.6

DICPBiCGStab:  Solving for rho_a, Initial residual = 1.64389e-15, Final residual = 6.07776e-30, No Iterations 1
Instante atual = 185.7

DICPBiCGStab:  Solving for rho_a, Initial residual = 1.77194e-15, Final residual = 7.8374e-30, No Iterations 1
Instante atual = 185.8

DICPBiCGStab:  Solving for rho_a, Initial residual = 1.09213e-15, Final residual = 4.30411e-30, No Iterations 1
Instante atual = 185.9

DICPBiCGStab:  Solving for rho_a, Initial residual = 1.27389e-15, Final residual = 2.54904e-30, No Iterations 1
Instante atual = 186

DICPBiCGStab:  Solving for rho_a, Initial residual = 1.27602e-15, Final residual = 6.11114e-30, No Iterations 1
Instante atual = 186.1

DICPBiCGStab:  Solving for rho_a, Initial residual = 1.12298e-15, Final residual = 1.30303e-29, No Iterations 1
Instante atual = 186.2

DICPBiCGStab:  Solving for rho_a, Initial residual = 1.22403e-15, Final residual = 3.34931e-30, No Iterations 1
Instante atual = 186.3

DICPBiCGStab:  Solving for rho_a, Initial residual = 1.89905e-15, Final residual = 8.76619e-30, No Iterations 1
Instante atual = 186.4

DICPBiCGStab:  Solving for rho_a, Initial residual = 1.30769e-15, Final residual = 4.53642e-30, No Iterations 1
Instante atual = 186.5

DICPBiCGStab:  Solving for rho_a, Initial residual = 1.01621e-15, Final residual = 5.10535e-30, No Iterations 1
Instante atual = 186.6

DICPBiCGStab:  Solving for rho_a, Initial residual = 1.17295e-15, Final residual = 4.60542e-30, No Iterations 1
Instante atual = 186.7

DICPBiCGStab:  Solving for rho_a, Initial residual = 9.84358e-16, Final residual = 9.04617e-30, No Iterations 1
Instante atual = 186.8

DICPBiCGStab:  Solving for rho_a, Initial residual = 1.46054e-15, Final residual = 2.5834e-30, No Iterations 1
Instante atual = 186.9

DICPBiCGStab:  Solving for rho_a, Initial residual = 1.49528e-15, Final residual = 7.96217e-30, No Iterations 1
Instante atual = 187

DICPBiCGStab:  Solving for rho_a, Initial residual = 1.08572e-15, Final residual = 2.26193e-30, No Iterations 1
Instante atual = 187.1

DICPBiCGStab:  Solving for rho_a, Initial residual = 1.3294e-15, Final residual = 5.85056e-30, No Iterations 1
Instante atual = 187.2

DICPBiCGStab:  Solving for rho_a, Initial residual = 1.15859e-15, Final residual = 8.55935e-30, No Iterations 1
Instante atual = 187.3

DICPBiCGStab:  Solving for rho_a, Initial residual = 1.47855e-15, Final residual = 9.67556e-30, No Iterations 1
Instante atual = 187.4

DICPBiCGStab:  Solving for rho_a, Initial residual = 1.12455e-15, Final residual = 5.06122e-30, No Iterations 1
Instante atual = 187.5

DICPBiCGStab:  Solving for rho_a, Initial residual = 1.45853e-15, Final residual = 4.42302e-30, No Iterations 1
Instante atual = 187.6

DICPBiCGStab:  Solving for rho_a, Initial residual = 1.16567e-15, Final residual = 4.40256e-30, No Iterations 1
Instante atual = 187.7

DICPBiCGStab:  Solving for rho_a, Initial residual = 1.09598e-15, Final residual = 6.09305e-30, No Iterations 1
Instante atual = 187.8

DICPBiCGStab:  Solving for rho_a, Initial residual = 1.09754e-15, Final residual = 5.99479e-30, No Iterations 1
Instante atual = 187.9

DICPBiCGStab:  Solving for rho_a, Initial residual = 1.16889e-15, Final residual = 2.42309e-30, No Iterations 1
Instante atual = 188

DICPBiCGStab:  Solving for rho_a, Initial residual = 1.59388e-15, Final residual = 1.12635e-29, No Iterations 1
Instante atual = 188.1

DICPBiCGStab:  Solving for rho_a, Initial residual = 1.74273e-15, Final residual = 1.16775e-29, No Iterations 1
Instante atual = 188.2

DICPBiCGStab:  Solving for rho_a, Initial residual = 1.31005e-15, Final residual = 1.0722e-29, No Iterations 1
Instante atual = 188.3

DICPBiCGStab:  Solving for rho_a, Initial residual = 1.20823e-15, Final residual = 9.29534e-30, No Iterations 1
Instante atual = 188.4

DICPBiCGStab:  Solving for rho_a, Initial residual = 1.21009e-15, Final residual = 2.48294e-30, No Iterations 1
Instante atual = 188.5

DICPBiCGStab:  Solving for rho_a, Initial residual = 1.18411e-15, Final residual = 7.2188e-30, No Iterations 1
Instante atual = 188.6

DICPBiCGStab:  Solving for rho_a, Initial residual = 1.28583e-15, Final residual = 4.41566e-30, No Iterations 1
Instante atual = 188.7

DICPBiCGStab:  Solving for rho_a, Initial residual = 1.12498e-15, Final residual = 1.6712e-29, No Iterations 1
Instante atual = 188.8

DICPBiCGStab:  Solving for rho_a, Initial residual = 1.23099e-15, Final residual = 3.71752e-30, No Iterations 1
Instante atual = 188.9

DICPBiCGStab:  Solving for rho_a, Initial residual = 1.13253e-15, Final residual = 1.32938e-29, No Iterations 1
Instante atual = 189

DICPBiCGStab:  Solving for rho_a, Initial residual = 1.24175e-15, Final residual = 1.12636e-29, No Iterations 1
Instante atual = 189.1

DICPBiCGStab:  Solving for rho_a, Initial residual = 1.41624e-15, Final residual = 4.91396e-30, No Iterations 1
Instante atual = 189.2

DICPBiCGStab:  Solving for rho_a, Initial residual = 1.49028e-15, Final residual = 6.59182e-30, No Iterations 1
Instante atual = 189.3

DICPBiCGStab:  Solving for rho_a, Initial residual = 1.41457e-15, Final residual = 1.33841e-29, No Iterations 1
Instante atual = 189.4

DICPBiCGStab:  Solving for rho_a, Initial residual = 1.07721e-15, Final residual = 1.54618e-30, No Iterations 1
Instante atual = 189.5

DICPBiCGStab:  Solving for rho_a, Initial residual = 1.20718e-15, Final residual = 5.56114e-30, No Iterations 1
Instante atual = 189.6

DICPBiCGStab:  Solving for rho_a, Initial residual = 1.39368e-15, Final residual = 6.77098e-30, No Iterations 1
Instante atual = 189.7

DICPBiCGStab:  Solving for rho_a, Initial residual = 1.42497e-15, Final residual = 2.56681e-30, No Iterations 1
Instante atual = 189.8

DICPBiCGStab:  Solving for rho_a, Initial residual = 1.36976e-15, Final residual = 4.31133e-30, No Iterations 1
Instante atual = 189.9

DICPBiCGStab:  Solving for rho_a, Initial residual = 1.29289e-15, Final residual = 4.58483e-30, No Iterations 1
Instante atual = 190

DICPBiCGStab:  Solving for rho_a, Initial residual = 1.57296e-15, Final residual = 1.40083e-29, No Iterations 1
Instante atual = 190.1

DICPBiCGStab:  Solving for rho_a, Initial residual = 1.18964e-15, Final residual = 1.39044e-30, No Iterations 1
Instante atual = 190.2

DICPBiCGStab:  Solving for rho_a, Initial residual = 1.40475e-15, Final residual = 2.85981e-30, No Iterations 1
Instante atual = 190.3

DICPBiCGStab:  Solving for rho_a, Initial residual = 1.05022e-15, Final residual = 9.06087e-31, No Iterations 1
Instante atual = 190.4

DICPBiCGStab:  Solving for rho_a, Initial residual = 1.3877e-15, Final residual = 1.25628e-29, No Iterations 1
Instante atual = 190.5

DICPBiCGStab:  Solving for rho_a, Initial residual = 1.54539e-15, Final residual = 1.35427e-29, No Iterations 1
Instante atual = 190.6

DICPBiCGStab:  Solving for rho_a, Initial residual = 1.2464e-15, Final residual = 6.10749e-30, No Iterations 1
Instante atual = 190.7

DICPBiCGStab:  Solving for rho_a, Initial residual = 1.5341e-15, Final residual = 1.20575e-29, No Iterations 1
Instante atual = 190.8

DICPBiCGStab:  Solving for rho_a, Initial residual = 1.36531e-15, Final residual = 8.69302e-30, No Iterations 1
Instante atual = 190.9

DICPBiCGStab:  Solving for rho_a, Initial residual = 1.01673e-15, Final residual = 1.68745e-30, No Iterations 1
Instante atual = 191

DICPBiCGStab:  Solving for rho_a, Initial residual = 1.61855e-15, Final residual = 6.24932e-30, No Iterations 1
Instante atual = 191.1

DICPBiCGStab:  Solving for rho_a, Initial residual = 1.45626e-15, Final residual = 8.75978e-31, No Iterations 1
Instante atual = 191.2

DICPBiCGStab:  Solving for rho_a, Initial residual = 1.4792e-15, Final residual = 7.1072e-30, No Iterations 1
Instante atual = 191.3

DICPBiCGStab:  Solving for rho_a, Initial residual = 1.34615e-15, Final residual = 1.7055e-30, No Iterations 1
Instante atual = 191.4

DICPBiCGStab:  Solving for rho_a, Initial residual = 1.31386e-15, Final residual = 5.06642e-30, No Iterations 1
Instante atual = 191.5

DICPBiCGStab:  Solving for rho_a, Initial residual = 1.0593e-15, Final residual = 1.16538e-29, No Iterations 1
Instante atual = 191.6

DICPBiCGStab:  Solving for rho_a, Initial residual = 1.20182e-15, Final residual = 4.58107e-30, No Iterations 1
Instante atual = 191.7

DICPBiCGStab:  Solving for rho_a, Initial residual = 1.30245e-15, Final residual = 4.42756e-30, No Iterations 1
Instante atual = 191.8

DICPBiCGStab:  Solving for rho_a, Initial residual = 1.18437e-15, Final residual = 5.45253e-30, No Iterations 1
Instante atual = 191.9

DICPBiCGStab:  Solving for rho_a, Initial residual = 1.55137e-15, Final residual = 2.83885e-30, No Iterations 1
Instante atual = 192

DICPBiCGStab:  Solving for rho_a, Initial residual = 1.3195e-15, Final residual = 5.52289e-30, No Iterations 1
Instante atual = 192.1

DICPBiCGStab:  Solving for rho_a, Initial residual = 1.56155e-15, Final residual = 2.49171e-30, No Iterations 1
Instante atual = 192.2

DICPBiCGStab:  Solving for rho_a, Initial residual = 1.73596e-15, Final residual = 1.07369e-29, No Iterations 1
Instante atual = 192.3

DICPBiCGStab:  Solving for rho_a, Initial residual = 1.68216e-15, Final residual = 5.80076e-30, No Iterations 1
Instante atual = 192.4

DICPBiCGStab:  Solving for rho_a, Initial residual = 1.00809e-15, Final residual = 1.67843e-30, No Iterations 1
Instante atual = 192.5

DICPBiCGStab:  Solving for rho_a, Initial residual = 1.32871e-15, Final residual = 4.22562e-30, No Iterations 1
Instante atual = 192.6

DICPBiCGStab:  Solving for rho_a, Initial residual = 1.10808e-15, Final residual = 2.50403e-30, No Iterations 1
Instante atual = 192.7

DICPBiCGStab:  Solving for rho_a, Initial residual = 1.79188e-15, Final residual = 7.38438e-30, No Iterations 1
Instante atual = 192.8

DICPBiCGStab:  Solving for rho_a, Initial residual = 1.4944e-15, Final residual = 3.62294e-30, No Iterations 1
Instante atual = 192.9

DICPBiCGStab:  Solving for rho_a, Initial residual = 1.26517e-15, Final residual = 4.27657e-30, No Iterations 1
Instante atual = 193

DICPBiCGStab:  Solving for rho_a, Initial residual = 1.43054e-15, Final residual = 1.34527e-29, No Iterations 1
Instante atual = 193.1

DICPBiCGStab:  Solving for rho_a, Initial residual = 1.06822e-15, Final residual = 7.27367e-30, No Iterations 1
Instante atual = 193.2

DICPBiCGStab:  Solving for rho_a, Initial residual = 1.3375e-15, Final residual = 3.02758e-30, No Iterations 1
Instante atual = 193.3

DICPBiCGStab:  Solving for rho_a, Initial residual = 1.49897e-15, Final residual = 4.04407e-30, No Iterations 1
Instante atual = 193.4

DICPBiCGStab:  Solving for rho_a, Initial residual = 1.11063e-15, Final residual = 3.83274e-30, No Iterations 1
Instante atual = 193.5

DICPBiCGStab:  Solving for rho_a, Initial residual = 1.60418e-15, Final residual = 9.45744e-30, No Iterations 1
Instante atual = 193.6

DICPBiCGStab:  Solving for rho_a, Initial residual = 1.50091e-15, Final residual = 4.64346e-30, No Iterations 1
Instante atual = 193.7

DICPBiCGStab:  Solving for rho_a, Initial residual = 1.41333e-15, Final residual = 6.1265e-30, No Iterations 1
Instante atual = 193.8

DICPBiCGStab:  Solving for rho_a, Initial residual = 1.02753e-15, Final residual = 2.62049e-30, No Iterations 1
Instante atual = 193.9

DICPBiCGStab:  Solving for rho_a, Initial residual = 1.23254e-15, Final residual = 6.79816e-30, No Iterations 1
Instante atual = 194

DICPBiCGStab:  Solving for rho_a, Initial residual = 1.35596e-15, Final residual = 8.45192e-30, No Iterations 1
Instante atual = 194.1

DICPBiCGStab:  Solving for rho_a, Initial residual = 1.44937e-15, Final residual = 9.58349e-30, No Iterations 1
Instante atual = 194.2

DICPBiCGStab:  Solving for rho_a, Initial residual = 1.19357e-15, Final residual = 8.22504e-30, No Iterations 1
Instante atual = 194.3

DICPBiCGStab:  Solving for rho_a, Initial residual = 1.05737e-15, Final residual = 1.59904e-30, No Iterations 1
Instante atual = 194.4

DICPBiCGStab:  Solving for rho_a, Initial residual = 1.35642e-15, Final residual = 4.60204e-30, No Iterations 1
Instante atual = 194.5

DICPBiCGStab:  Solving for rho_a, Initial residual = 1.23636e-15, Final residual = 1.05009e-29, No Iterations 1
Instante atual = 194.6

DICPBiCGStab:  Solving for rho_a, Initial residual = 1.30784e-15, Final residual = 9.55657e-30, No Iterations 1
Instante atual = 194.7

DICPBiCGStab:  Solving for rho_a, Initial residual = 1.24768e-15, Final residual = 4.20029e-30, No Iterations 1
Instante atual = 194.8

DICPBiCGStab:  Solving for rho_a, Initial residual = 1.05646e-15, Final residual = 6.62081e-30, No Iterations 1
Instante atual = 194.9

DICPBiCGStab:  Solving for rho_a, Initial residual = 1.42456e-15, Final residual = 2.24861e-30, No Iterations 1
Instante atual = 195

DICPBiCGStab:  Solving for rho_a, Initial residual = 1.62369e-15, Final residual = 8.97629e-30, No Iterations 1
Instante atual = 195.1

DICPBiCGStab:  Solving for rho_a, Initial residual = 1.04412e-15, Final residual = 5.57838e-30, No Iterations 1
Instante atual = 195.2

DICPBiCGStab:  Solving for rho_a, Initial residual = 1.31359e-15, Final residual = 6.57761e-30, No Iterations 1
Instante atual = 195.3

DICPBiCGStab:  Solving for rho_a, Initial residual = 1.36265e-15, Final residual = 6.60121e-30, No Iterations 1
Instante atual = 195.4

DICPBiCGStab:  Solving for rho_a, Initial residual = 1.3009e-15, Final residual = 1.32471e-29, No Iterations 1
Instante atual = 195.5

DICPBiCGStab:  Solving for rho_a, Initial residual = 1.24785e-15, Final residual = 8.77406e-30, No Iterations 1
Instante atual = 195.6

DICPBiCGStab:  Solving for rho_a, Initial residual = 1.514e-15, Final residual = 3.95498e-30, No Iterations 1
Instante atual = 195.7

DICPBiCGStab:  Solving for rho_a, Initial residual = 1.1944e-15, Final residual = 3.8995e-30, No Iterations 1
Instante atual = 195.8

DICPBiCGStab:  Solving for rho_a, Initial residual = 1.13959e-15, Final residual = 7.64654e-30, No Iterations 1
Instante atual = 195.9

DICPBiCGStab:  Solving for rho_a, Initial residual = 1.27271e-15, Final residual = 1.08442e-29, No Iterations 1
Instante atual = 196

DICPBiCGStab:  Solving for rho_a, Initial residual = 1.38531e-15, Final residual = 1.32688e-29, No Iterations 1
Instante atual = 196.1

DICPBiCGStab:  Solving for rho_a, Initial residual = 1.33611e-15, Final residual = 1.63907e-29, No Iterations 1
Instante atual = 196.2

DICPBiCGStab:  Solving for rho_a, Initial residual = 1.2103e-15, Final residual = 1.13833e-29, No Iterations 1
Instante atual = 196.3

DICPBiCGStab:  Solving for rho_a, Initial residual = 1.23837e-15, Final residual = 2.4881e-30, No Iterations 1
Instante atual = 196.4

DICPBiCGStab:  Solving for rho_a, Initial residual = 1.16954e-15, Final residual = 1.0026e-29, No Iterations 1
Instante atual = 196.5

DICPBiCGStab:  Solving for rho_a, Initial residual = 1.34379e-15, Final residual = 1.28465e-30, No Iterations 1
Instante atual = 196.6

DICPBiCGStab:  Solving for rho_a, Initial residual = 1.5242e-15, Final residual = 7.01044e-30, No Iterations 1
Instante atual = 196.7

DICPBiCGStab:  Solving for rho_a, Initial residual = 1.45454e-15, Final residual = 3.71862e-30, No Iterations 1
Instante atual = 196.8

DICPBiCGStab:  Solving for rho_a, Initial residual = 1.22896e-15, Final residual = 4.24378e-30, No Iterations 1
Instante atual = 196.9

DICPBiCGStab:  Solving for rho_a, Initial residual = 1.35357e-15, Final residual = 4.25479e-30, No Iterations 1
Instante atual = 197

DICPBiCGStab:  Solving for rho_a, Initial residual = 1.26107e-15, Final residual = 7.64676e-30, No Iterations 1
Instante atual = 197.1

DICPBiCGStab:  Solving for rho_a, Initial residual = 1.21917e-15, Final residual = 5.35558e-30, No Iterations 1
Instante atual = 197.2

DICPBiCGStab:  Solving for rho_a, Initial residual = 1.21449e-15, Final residual = 4.02715e-30, No Iterations 1
Instante atual = 197.3

DICPBiCGStab:  Solving for rho_a, Initial residual = 1.51983e-15, Final residual = 5.20084e-30, No Iterations 1
Instante atual = 197.4

DICPBiCGStab:  Solving for rho_a, Initial residual = 1.39133e-15, Final residual = 3.33837e-30, No Iterations 1
Instante atual = 197.5

DICPBiCGStab:  Solving for rho_a, Initial residual = 1.67192e-15, Final residual = 1.52015e-29, No Iterations 1
Instante atual = 197.6

DICPBiCGStab:  Solving for rho_a, Initial residual = 1.20289e-15, Final residual = 6.60049e-30, No Iterations 1
Instante atual = 197.7

DICPBiCGStab:  Solving for rho_a, Initial residual = 1.34696e-15, Final residual = 1.04669e-29, No Iterations 1
Instante atual = 197.8

DICPBiCGStab:  Solving for rho_a, Initial residual = 1.27453e-15, Final residual = 1.62783e-29, No Iterations 1
Instante atual = 197.9

DICPBiCGStab:  Solving for rho_a, Initial residual = 1.33117e-15, Final residual = 6.70194e-30, No Iterations 1
Instante atual = 198

DICPBiCGStab:  Solving for rho_a, Initial residual = 1.4386e-15, Final residual = 1.97321e-30, No Iterations 1
Instante atual = 198.1

DICPBiCGStab:  Solving for rho_a, Initial residual = 1.31936e-15, Final residual = 2.24543e-30, No Iterations 1
Instante atual = 198.2

DICPBiCGStab:  Solving for rho_a, Initial residual = 1.28177e-15, Final residual = 9.3962e-30, No Iterations 1
Instante atual = 198.3

DICPBiCGStab:  Solving for rho_a, Initial residual = 1.28896e-15, Final residual = 1.09469e-29, No Iterations 1
Instante atual = 198.4

DICPBiCGStab:  Solving for rho_a, Initial residual = 1.22101e-15, Final residual = 1.97007e-30, No Iterations 1
Instante atual = 198.5

DICPBiCGStab:  Solving for rho_a, Initial residual = 1.2579e-15, Final residual = 5.32833e-30, No Iterations 1
Instante atual = 198.6

DICPBiCGStab:  Solving for rho_a, Initial residual = 1.41131e-15, Final residual = 2.72824e-30, No Iterations 1
Instante atual = 198.7

DICPBiCGStab:  Solving for rho_a, Initial residual = 1.41128e-15, Final residual = 1.49415e-29, No Iterations 1
Instante atual = 198.8

DICPBiCGStab:  Solving for rho_a, Initial residual = 1.67676e-15, Final residual = 4.21317e-30, No Iterations 1
Instante atual = 198.9

DICPBiCGStab:  Solving for rho_a, Initial residual = 1.54757e-15, Final residual = 2.03793e-30, No Iterations 1
Instante atual = 199

DICPBiCGStab:  Solving for rho_a, Initial residual = 1.20056e-15, Final residual = 8.97602e-30, No Iterations 1
Instante atual = 199.1

DICPBiCGStab:  Solving for rho_a, Initial residual = 1.25999e-15, Final residual = 2.06387e-30, No Iterations 1
Instante atual = 199.2

DICPBiCGStab:  Solving for rho_a, Initial residual = 1.06975e-15, Final residual = 1.586e-30, No Iterations 1
Instante atual = 199.3

DICPBiCGStab:  Solving for rho_a, Initial residual = 9.28179e-16, Final residual = 1.19314e-30, No Iterations 1
Instante atual = 199.4

DICPBiCGStab:  Solving for rho_a, Initial residual = 1.30623e-15, Final residual = 2.66306e-30, No Iterations 1
Instante atual = 199.5

DICPBiCGStab:  Solving for rho_a, Initial residual = 1.19445e-15, Final residual = 2.4331e-30, No Iterations 1
Instante atual = 199.6

DICPBiCGStab:  Solving for rho_a, Initial residual = 1.43121e-15, Final residual = 1.06716e-29, No Iterations 1
Instante atual = 199.7

DICPBiCGStab:  Solving for rho_a, Initial residual = 1.09245e-15, Final residual = 1.29416e-29, No Iterations 1
Instante atual = 199.8

DICPBiCGStab:  Solving for rho_a, Initial residual = 1.46451e-15, Final residual = 4.72194e-30, No Iterations 1
Instante atual = 199.9

DICPBiCGStab:  Solving for rho_a, Initial residual = 1.48733e-15, Final residual = 7.28482e-30, No Iterations 1
Instante atual = 200

DICPBiCGStab:  Solving for rho_a, Initial residual = 1.43767e-15, Final residual = 6.48089e-30, No Iterations 1
End

